<?xml version="1.0" encoding="UTF-8"?>

<!-- generated on 2024-10-27 10:50:37 by Eclipse SUMO polyconvert Version 1.11.0
<configuration xmlns:xsi="http://www.w3.org/2001/XMLSchema-instance" xsi:noNamespaceSchemaLocation="http://sumo.dlr.de/xsd/polyconvertConfiguration.xsd">

    <input>
        <net-file value="nycmap.net.xml"/>
        <osm-files value="nyc.osm"/>
        <type-file value="typemap.xml"/>
    </input>

    <output>
        <output-file value="nycmap.poly.xml"/>
    </output>

    <processing>
        <poi-layer-offset value="5"/>
    </processing>

</configuration>
-->

<additional xmlns:xsi="http://www.w3.org/2001/XMLSchema-instance" xsi:noNamespaceSchemaLocation="http://sumo.dlr.de/xsd/additional_file.xsd">
    <location netOffset="-584082.05,-4507745.06" convBoundary="-0.00,0.00,2630.55,2559.47" origBoundary="-74.004380,40.716319,-73.973180,40.739316" projParameter="+proj=utm +zone=18 +ellps=WGS84 +datum=WGS84 +units=m +no_defs"/>

    <poly id="1048480726" type="leisure" color="207,245,201" fill="1" layer="-2.00" shape="1653.300563,1555.393870 1664.375199,1549.349131 1664.631488,1549.096745 1664.803974,1548.787879 1664.899817,1548.533638 1664.979798,1548.190395 1664.974435,1547.923881 1664.934908,1547.690278 1664.819123,1547.477998 1650.261437,1520.220346 1650.036642,1519.940193 1649.785357,1519.759652 1649.550577,1519.612609 1649.306454,1519.543174 1649.011535,1519.484253 1648.715974,1519.480835 1648.437046,1519.499814 1648.148518,1519.618602 1637.192589,1525.620329 1636.996567,1525.773493 1636.816536,1526.004558 1636.669384,1526.313717 1636.614995,1526.635051 1636.594127,1526.978977 1636.615739,1527.301190 1636.697105,1527.568583 1636.837583,1527.836659 1651.381493,1554.827672 1651.539629,1555.029340 1651.689963,1555.175407 1651.891220,1555.299858 1652.084161,1555.413111 1652.328540,1555.460345 1652.547713,1555.496186 1652.784161,1555.498920 1653.021122,1555.457252 1653.300563,1555.393870"/>
    <poly id="1048480726#1" type="sport" color="79,230,125" fill="1" layer="-2.00" shape="1653.300563,1555.393870 1664.375199,1549.349131 1664.631488,1549.096745 1664.803974,1548.787879 1664.899817,1548.533638 1664.979798,1548.190395 1664.974435,1547.923881 1664.934908,1547.690278 1664.819123,1547.477998 1650.261437,1520.220346 1650.036642,1519.940193 1649.785357,1519.759652 1649.550577,1519.612609 1649.306454,1519.543174 1649.011535,1519.484253 1648.715974,1519.480835 1648.437046,1519.499814 1648.148518,1519.618602 1637.192589,1525.620329 1636.996567,1525.773493 1636.816536,1526.004558 1636.669384,1526.313717 1636.614995,1526.635051 1636.594127,1526.978977 1636.615739,1527.301190 1636.697105,1527.568583 1636.837583,1527.836659 1651.381493,1554.827672 1651.539629,1555.029340 1651.689963,1555.175407 1651.891220,1555.299858 1652.084161,1555.413111 1652.328540,1555.460345 1652.547713,1555.496186 1652.784161,1555.498920 1653.021122,1555.457252 1653.300563,1555.393870"/>
    <poly id="1048480727" type="leisure" color="207,245,201" fill="1" layer="-2.00" shape="1654.240879,1558.069265 1666.123137,1551.567577 1666.557276,1551.272839 1667.062567,1550.668064 1667.433643,1549.984021 1667.737676,1549.254793 1667.845815,1548.667629 1667.885499,1548.157388 1667.760143,1547.312172 1667.582194,1546.632882 1667.252114,1545.962934 1652.584397,1518.726209 1652.160397,1518.143994 1651.768379,1517.717578 1651.383136,1517.435569 1650.921507,1517.185983 1650.341269,1516.968333 1649.751558,1516.839390 1649.102223,1516.754167 1648.452502,1516.702245 1647.860738,1516.750914 1647.318615,1516.888974 1646.757934,1517.171147 1635.503235,1523.446977 1634.949331,1523.873558 1634.546917,1524.346299 1634.288317,1524.798498 1634.011674,1525.350409 1633.809363,1526.047507 1633.699302,1526.801182 1633.758517,1527.523508 1633.902819,1528.191307 1634.140012,1528.860179 1649.273739,1556.701772 1649.648738,1557.139093 1650.117397,1557.510884 1650.729613,1557.884335 1651.318293,1558.102083 1651.924632,1558.253423 1652.532127,1558.304856 1653.106613,1558.289295 1653.648220,1558.195638 1654.240879,1558.069265"/>
    <poly id="1048480727#1" type="sport" color="79,230,125" fill="1" layer="-2.00" shape="1654.240879,1558.069265 1666.123137,1551.567577 1666.557276,1551.272839 1667.062567,1550.668064 1667.433643,1549.984021 1667.737676,1549.254793 1667.845815,1548.667629 1667.885499,1548.157388 1667.760143,1547.312172 1667.582194,1546.632882 1667.252114,1545.962934 1652.584397,1518.726209 1652.160397,1518.143994 1651.768379,1517.717578 1651.383136,1517.435569 1650.921507,1517.185983 1650.341269,1516.968333 1649.751558,1516.839390 1649.102223,1516.754167 1648.452502,1516.702245 1647.860738,1516.750914 1647.318615,1516.888974 1646.757934,1517.171147 1635.503235,1523.446977 1634.949331,1523.873558 1634.546917,1524.346299 1634.288317,1524.798498 1634.011674,1525.350409 1633.809363,1526.047507 1633.699302,1526.801182 1633.758517,1527.523508 1633.902819,1528.191307 1634.140012,1528.860179 1649.273739,1556.701772 1649.648738,1557.139093 1650.117397,1557.510884 1650.729613,1557.884335 1651.318293,1558.102083 1651.924632,1558.253423 1652.532127,1558.304856 1653.106613,1558.289295 1653.648220,1558.195638 1654.240879,1558.069265"/>
    <poly id="1048480728" type="leisure" color="207,245,201" fill="1" layer="-2.00" shape="1633.166198,1550.997757 1623.265573,1532.198347 1612.312892,1537.922593 1622.196647,1556.721793 1633.166198,1550.997757"/>
    <poly id="1048480728#1" type="sport" color="79,230,125" fill="1" layer="-2.00" shape="1633.166198,1550.997757 1623.265573,1532.198347 1612.312892,1537.922593 1622.196647,1556.721793 1633.166198,1550.997757"/>
    <poly id="1048480729" type="leisure" color="207,245,201" fill="1" layer="-2.00" shape="1641.979653,1575.435619 1648.830102,1571.695680 1653.462128,1580.131384 1641.087192,1586.882745 1641.979653,1575.435619"/>
    <poly id="1063735559" type="building" color="255,230,230" fill="1" layer="-1.00" shape="1558.653989,1411.714860 1559.670893,1413.613974 1562.007935,1412.364219 1561.362967,1411.168837 1564.209899,1409.647418 1562.093056,1405.726106 1554.898458,1392.453631 1551.133593,1394.475152 1549.782418,1395.192290 1558.653989,1411.714860"/>
    <poly id="1067449180" type="tourism" color="207,245,201" fill="0" layer="-2.00" shape="642.389716,1731.177104 651.007844,1726.412860 659.260212,1721.877590 690.007336,1705.131803"/>
    <poly id="1067449185" type="tourism" color="207,245,201" fill="0" layer="-2.00" shape="763.323383,1665.203415 765.694493,1663.909395 771.763954,1660.470582"/>
    <poly id="1078583195" type="landuse" color="194,194,130" fill="1" layer="-3.00" shape="518.072048,1248.646758 504.286197,1227.351042 557.446592,1193.208007 571.224041,1214.492625 518.072048,1248.646758"/>
    <poly id="1079499929" type="building" color="255,230,230" fill="1" layer="-1.00" shape="1517.614018,1783.463397 1515.081726,1784.810829 1512.435816,1779.906427 1513.684945,1779.243616 1512.031458,1776.160326 1513.893548,1776.537094 1514.976425,1778.570192 1514.139770,1780.081530 1514.850984,1781.388696 1516.539202,1781.463698 1517.614018,1783.463397"/>
    <poly id="1079499930" type="building" color="255,230,230" fill="1" layer="-1.00" shape="1522.349001,1775.668833 1520.865752,1775.396356 1519.782619,1773.385459 1520.240693,1771.747626 1521.711653,1772.353026 1522.794657,1774.375025 1522.349001,1775.668833"/>
    <poly id="1079499931" type="building" color="255,230,230" fill="1" layer="-1.00" shape="1533.462618,1774.986708 1531.593077,1775.986519 1530.518264,1773.986818 1531.023544,1772.649290 1531.701620,1773.900564 1532.610930,1773.411466 1533.462618,1774.986708"/>
    <poly id="1079499932" type="building" color="255,230,230" fill="1" layer="-1.00" shape="1530.337280,1771.375717 1528.955747,1771.071107 1527.872616,1769.060208 1528.237291,1767.465707 1529.287158,1769.431812 1530.791287,1768.627621 1531.841409,1770.571526 1530.337280,1771.375717"/>
    <poly id="1079499933" type="building" color="255,230,230" fill="1" layer="-1.00" shape="1478.349812,1835.545630 1491.181457,1828.688260 1493.033373,1832.140208 1501.706845,1848.227461 1488.883668,1855.084910 1478.349812,1835.545630"/>
    <poly id="1079499934" type="building" color="255,230,230" fill="1" layer="-1.00" shape="1473.621782,1863.235395 1478.321021,1860.725026 1468.506550,1842.515222 1463.807304,1845.025597 1465.270805,1847.740312 1466.262975,1849.583620 1466.990567,1850.935379 1467.817439,1852.465918 1472.315269,1860.822248 1473.621782,1863.235395"/>
    <poly id="108156090" type="amenity" color="237,199,199" fill="1" layer="-1.00" shape="387.559910,1727.969563 366.694553,1694.314465 377.056941,1687.660209 333.780835,1617.323880 371.888342,1592.755881 336.479365,1536.087073 361.245544,1520.204410 357.744513,1514.668987 373.552010,1504.535159 376.380910,1509.019334 392.297719,1498.931199 414.759189,1535.602110 550.516709,1448.855278 391.575905,1192.360135 571.578756,1074.665427 593.713312,1110.422739 663.190280,1065.431257 678.618054,1089.377239 608.665546,1133.863548 687.957045,1257.303773 755.658495,1214.624319 797.799542,1282.174581 730.216160,1324.899404 794.860967,1423.781998 872.407308,1374.654960 842.637931,1327.263072 898.431146,1291.931372 893.311891,1283.912470 970.489526,1234.715573 986.022082,1259.718142 933.516923,1292.555610 973.683236,1356.842467 1041.426429,1313.544353 1032.294447,1296.053563 1078.047311,1268.745814 1085.866224,1306.427487 1052.455318,1326.915835 1059.759537,1338.079646 1049.379399,1344.710566 1046.940346,1340.874526 987.816926,1377.865540 1065.154905,1501.487510 1066.089834,1501.709188 1067.080944,1502.186860 1068.625603,1503.736696 1071.155408,1507.018681 1071.570146,1508.411213 1071.447520,1510.263863 1070.521480,1511.474464 1069.011585,1512.045538 1064.812612,1512.907691 1061.557429,1511.748992 971.639830,1528.347167 969.817712,1528.159733 968.297393,1527.431756 967.184793,1525.764773 934.736727,1473.445700 793.491004,1563.375710 855.920572,1663.687973 856.258578,1665.146227 856.106680,1666.609969 855.578726,1667.725238 854.411795,1668.588938 772.692078,1712.938822 749.303101,1669.694778 649.380339,1723.241252 648.113052,1723.282279 646.891159,1723.046272 646.341571,1722.362761 619.295262,1673.182115 605.548934,1681.795768 549.977353,1716.588103 577.384417,1767.482340 549.448121,1782.184568 481.884411,1668.960122 387.559910,1727.969563"/>
    <poly id="1084139384" type="water" color="181,209,209" fill="1" layer="-4.00" shape="581.755552,1301.098427 591.010201,1295.364384 587.186722,1289.225656 577.932195,1294.948602 581.755552,1301.098427"/>
    <poly id="1084139394" type="landuse" color="194,194,130" fill="1" layer="-3.00" shape="522.238492,1310.599739 535.917959,1301.974056 561.347565,1342.021016 547.676711,1350.635648 522.238492,1310.599739"/>
    <poly id="1084139400" type="landuse" color="194,194,130" fill="1" layer="-3.00" shape="564.343688,1376.982511 577.579523,1368.740415 565.070667,1348.813611 551.834811,1357.055729 564.343688,1376.982511"/>
    <poly id="1097487344" type="leisure" color="207,245,201" fill="1" layer="-2.00" shape="1024.894218,1296.190663 1031.329139,1292.589715 1019.681483,1273.515766 1013.181833,1277.604476 1024.894218,1296.190663"/>
    <poly id="1107861966" type="leisure" color="207,245,201" fill="1" layer="-2.00" shape="700.057563,1304.803812 709.498404,1298.305997 656.820629,1217.790670 654.687199,1214.535570 645.446246,1220.536143 700.057563,1304.803812"/>
    <poly id="1107861967" type="leisure" color="207,245,201" fill="1" layer="-2.00" shape="644.150579,1307.317781 683.325326,1281.975268 659.494751,1245.421122 620.320027,1270.752660 644.150579,1307.317781"/>
    <poly id="1107861968" type="landuse" color="194,194,130" fill="1" layer="-3.00" shape="532.976574,1393.199963 533.879693,1394.731260 531.034159,1397.629749 529.399219,1401.019445 528.694464,1404.308734 528.665963,1406.806387 528.169963,1407.344732 523.541924,1399.920109 526.100756,1400.682048 527.575076,1400.265889 529.061178,1398.817366 529.265709,1397.176585 528.606853,1395.703586 532.976574,1393.199963"/>
    <poly id="1107861969" type="landuse" color="194,194,130" fill="1" layer="-3.00" shape="519.816997,1394.026786 515.719104,1388.251333 514.094587,1385.546083 514.178017,1383.415427 515.250241,1381.229440 518.183350,1381.018659 519.715352,1381.469122 523.081930,1381.019042 524.796971,1380.971999 526.009551,1382.029435 529.549455,1387.854037 519.816997,1394.026786"/>
    <poly id="1107861970" type="leisure" color="207,245,201" fill="1" layer="-2.00" shape="526.100756,1400.682048 523.541924,1399.920109 519.816997,1394.026786 529.549455,1387.854037 532.976574,1393.199963 528.606853,1395.703586 529.265709,1397.176585 529.061178,1398.817366 527.575076,1400.265889 526.100756,1400.682048"/>
    <poly id="1107861971" type="landuse" color="194,194,130" fill="1" layer="-3.00" shape="551.489161,1422.854092 547.868627,1423.356770 544.335035,1422.161818 540.747270,1420.533265 537.053606,1419.303182 534.940026,1419.490002 529.468968,1411.189789 530.210497,1410.598736 532.604528,1410.259686 534.448177,1409.303738 535.637869,1407.185707 535.964048,1405.246557 533.851143,1402.413606 532.089535,1401.361005 533.782323,1398.082992 535.326145,1396.757253 551.489161,1422.854092"/>
    <poly id="1107861972" type="landuse" color="194,194,130" fill="1" layer="-3.00" shape="542.574928,1432.078133 550.151338,1427.590532 543.818129,1424.531773 536.682120,1422.252109 542.574928,1432.078133"/>
    <poly id="1118124538" type="landuse" color="194,194,130" fill="1" layer="-3.00" shape="1397.932229,1255.440274 1395.705591,1256.635843 1368.042978,1271.460351 1366.283760,1272.405965 1373.784366,1286.281285 1383.200637,1281.238411 1395.217558,1274.793349 1396.058847,1274.347859 1397.554614,1273.543542 1405.432796,1269.315627 1397.932229,1255.440274"/>
    <poly id="1151272582" type="unknown" color="51,128,255" fill="0" layer="-1.00" shape="369.009872,1907.723724 371.880044,1913.018829"/>
    <poly id="1154628504" type="leisure" color="207,245,201" fill="1" layer="-2.00" shape="1720.237305,1916.211913 1755.548781,1897.824691 1743.575603,1875.015408 1734.346815,1868.280569 1721.582815,1867.089223 1713.092365,1870.987746 1708.034652,1879.655531 1707.239455,1891.447949 1720.237305,1916.211913"/>
    <poly id="1156633380" type="amenity" color="237,199,199" fill="1" layer="-1.00" shape="1169.527224,1582.278210 1235.687284,1546.579756 1170.389291,1425.037212 1136.008537,1437.342844 1150.154578,1501.320617 1153.256944,1522.383760 1169.527224,1582.278210"/>
    <poly id="1156633381" type="amenity" color="237,199,199" fill="1" layer="-1.00" shape="1186.203344,1399.029079 1215.880689,1382.994751 1187.960865,1330.660033 1157.611136,1347.130831 1186.203344,1399.029079"/>
    <poly id="1156633383" type="amenity" color="237,199,199" fill="1" layer="-1.00" shape="1323.273199,1561.610173 1332.818070,1557.834371 1334.233041,1534.713768 1325.562249,1533.725708 1323.273199,1561.610173"/>
    <poly id="1160592965" type="landuse" color="194,194,130" fill="1" layer="-3.00" shape="1136.801728,1422.708223 1135.491324,1420.617060 1136.034471,1416.715345 1136.914513,1412.895217 1136.555201,1408.150469 1134.602770,1403.132062 1131.265710,1395.866209 1130.296125,1392.779770 1130.918895,1390.033594 1132.938413,1388.480299 1135.682850,1389.255684 1138.819795,1392.622384 1140.849249,1397.552860 1140.797575,1402.048638 1140.075068,1406.858667 1140.449689,1410.271333 1141.823488,1414.195081 1141.687367,1418.689888 1139.987397,1421.834461 1136.801728,1422.708223"/>
    <poly id="1160592966" type="landuse" color="194,194,130" fill="1" layer="-3.00" shape="1128.757788,1381.859780 1128.780751,1379.861657 1129.475569,1377.460475 1128.342724,1374.616408 1127.627371,1371.455176 1127.572647,1368.867746 1129.339720,1367.233834 1131.843987,1367.595678 1134.239949,1370.032381 1135.114729,1373.284262 1134.997749,1376.113966 1133.640514,1378.096755 1133.450696,1379.915326 1134.103311,1381.921213 1133.240490,1384.242749 1131.222987,1384.885691 1129.654409,1383.946186 1128.757788,1381.859780"/>
    <poly id="1160592967" type="landuse" color="194,194,130" fill="1" layer="-3.00" shape="1119.136979,1347.399171 1120.724700,1346.673571 1113.207951,1332.698412 1110.806853,1323.356121 1105.224657,1315.220725 1101.950446,1317.181495 1106.949059,1325.387900 1106.243268,1335.360622 1119.136979,1347.399171"/>
    <poly id="1176003999" type="amenity" color="237,199,199" fill="0" layer="-1.00" shape="1645.588111,1971.836203 1630.311884,1943.249083 1626.414559,1935.565723 1625.208362,1931.055395 1625.173228,1926.059008 1625.948063,1921.860240"/>
    <poly id="1176004698" type="amenity" color="237,199,199" fill="0" layer="-1.00" shape="1628.006077,1916.244126 1628.942686,1914.123336 1631.111682,1910.595716 1633.047783,1908.220030 1635.607983,1905.918174"/>
    <poly id="1176004960" type="amenity" color="237,199,199" fill="0" layer="-1.00" shape="1644.935406,1900.474938 1649.287387,1899.514966 1653.638956,1899.321042"/>
    <poly id="1176005324" type="amenity" color="237,199,199" fill="0" layer="-1.00" shape="1668.766609,1904.247740 1672.699666,1907.379641 1676.371789,1911.896299 1679.832226,1917.920406 1689.641488,1935.797383 1693.308477,1942.945208"/>
    <poly id="1193384631" type="amenity" color="237,199,199" fill="1" layer="-1.00" shape="1661.344448,1563.846828 1664.107298,1565.211041 1666.701243,1563.653430 1666.793863,1560.756833 1664.153215,1559.049865 1661.390250,1560.616625 1661.344448,1563.846828"/>
    <poly id="1193384631#1" type="building" color="255,230,230" fill="1" layer="-1.00" shape="1661.344448,1563.846828 1664.107298,1565.211041 1666.701243,1563.653430 1666.793863,1560.756833 1664.153215,1559.049865 1661.390250,1560.616625 1661.344448,1563.846828"/>
    <poly id="1213046463" type="leisure" color="207,245,201" fill="1" layer="-2.00" shape="1629.778884,1529.131725 1628.371408,1526.684078 1626.883596,1527.532849 1628.282628,1529.980397 1629.778884,1529.131725"/>
    <poly id="1213046463#1" type="sport" color="79,230,125" fill="1" layer="-2.00" shape="1629.778884,1529.131725 1628.371408,1526.684078 1626.883596,1527.532849 1628.282628,1529.980397 1629.778884,1529.131725"/>
    <poly id="1232773488" type="unknown" color="51,128,255" fill="1" layer="-1.00" shape="566.774201,1621.268215 565.461061,1618.666426 564.843155,1615.828328 564.943916,1612.920720 565.761316,1610.121213 567.242536,1607.617940 569.301483,1605.554247 571.801524,1604.061800 574.597963,1603.238866 577.816832,1603.142395 580.924353,1603.921722 583.718619,1605.507929 585.964323,1607.798410 587.511621,1610.602715 588.236128,1613.719586 588.081395,1616.915233 587.067102,1619.945634 585.263214,1622.600648 582.807377,1624.659804 579.887019,1625.980916 576.714390,1626.466488 573.812793,1626.144701 571.079625,1625.125404 568.683141,1623.466028 566.774201,1621.268215"/>
    <poly id="1232773490" type="landuse" color="194,194,130" fill="1" layer="-3.00" shape="484.594213,1728.298609 484.974549,1729.013484 485.576210,1729.575453 486.290433,1729.894460 487.066552,1729.969926 487.828695,1729.789883 488.492165,1729.375571 488.988775,1728.781720 489.275796,1728.052254 489.309992,1727.275495 489.098924,1726.529244 488.650147,1725.891304 488.030584,1725.417947 487.290141,1725.176356 486.470913,1725.178113 485.699186,1725.457966 485.059782,1725.983574 484.638033,1726.678198 484.476791,1727.486814 484.594213,1728.298609"/>
    <poly id="1232773491" type="unknown" color="51,128,255" fill="1" layer="-1.00" shape="487.066552,1729.969926 486.290433,1729.894460 485.576210,1729.575453 484.974549,1729.013484 484.594213,1728.298609 484.476791,1727.486814 484.638033,1726.678198 485.059782,1725.983574 485.699186,1725.457966 486.470913,1725.178113 487.290141,1725.176356 488.030584,1725.417947 488.650147,1725.891304 489.098924,1726.529244 489.309992,1727.275495 489.275796,1728.052254 488.988775,1728.781720 488.492165,1729.375571 487.828695,1729.789883 487.066552,1729.969926"/>
    <poly id="1232773492" type="leisure" color="207,245,201" fill="1" layer="-2.00" shape="444.854103,1710.159725 445.790070,1709.548677 444.212725,1707.154838 443.276758,1707.765886 444.854103,1710.159725"/>
    <poly id="1232773493" type="leisure" color="207,245,201" fill="1" layer="-2.00" shape="450.841573,1719.820231 451.794175,1719.231578 450.259436,1716.804917 449.315152,1717.404767 450.841573,1719.820231"/>
    <poly id="1232773494" type="leisure" color="207,245,201" fill="1" layer="-2.00" shape="456.523802,1728.844441 457.467959,1728.255692 455.941668,1725.829126 454.997385,1726.428975 456.523802,1728.844441"/>
    <poly id="1232773495" type="leisure" color="207,245,201" fill="1" layer="-2.00" shape="462.305577,1738.025220 463.258178,1737.436568 461.723320,1735.021005 460.779163,1735.609753 462.305577,1738.025220"/>
    <poly id="1232773496" type="leisure" color="207,245,201" fill="1" layer="-2.00" shape="468.501198,1747.943464 469.453797,1747.354813 467.919070,1744.928148 466.974788,1745.527997 468.501198,1747.943464"/>
    <poly id="1232773499" type="unknown" color="51,128,255" fill="0" layer="-1.00" shape="443.479865,1701.062516 444.018751,1701.945728 473.886657,1750.402945 477.692219,1751.434439"/>
    <poly id="1232773500" type="leisure" color="207,245,201" fill="1" layer="-2.00" shape="477.692219,1751.434439 482.427552,1735.368157 480.567559,1734.802937 476.825041,1728.243300 477.361670,1726.362058 474.091128,1725.070216 471.146913,1723.304705 468.240273,1721.206560 465.753353,1718.591402 463.083948,1715.685509 460.607532,1712.148997 458.058784,1708.289698 455.689644,1704.232611 453.435685,1700.443288 452.189245,1699.396578 451.231270,1698.974877 449.459977,1698.777046 448.042679,1699.382606 444.018751,1701.945728 473.886657,1750.402945 477.692219,1751.434439"/>
    <poly id="1232773501" type="leisure" color="207,245,201" fill="1" layer="-2.00" shape="440.173424,1696.250905 443.489257,1694.312529 444.822020,1692.973265 445.757680,1690.907834 445.728656,1689.009039 444.571754,1686.775424 442.797054,1683.913046 440.830789,1680.815340 439.100966,1677.720329 437.556699,1673.905797 435.875077,1669.545695 434.229609,1662.754639 433.103576,1657.812458 432.723965,1654.810557 430.826535,1653.823042 429.086797,1652.337731 427.557571,1650.166487 426.778632,1648.114817 426.510121,1646.479743 410.664162,1644.445086 410.642024,1646.387705 411.112919,1648.791131 412.132829,1651.189712 440.173424,1696.250905"/>
    <poly id="1232773502" type="landuse" color="194,194,130" fill="1" layer="-3.00" shape="434.214100,1646.334416 434.585874,1647.060292 435.187545,1647.622258 435.901779,1647.941259 436.686478,1648.005715 437.440057,1647.836672 438.111976,1647.422451 438.608586,1646.828597 438.887160,1646.099033 438.929796,1645.322370 438.710276,1644.576025 438.270060,1643.927083 437.641916,1643.464735 436.901590,1643.212048 436.082227,1643.224912 435.310493,1643.504770 434.679531,1644.030479 434.257781,1644.725106 434.096544,1645.533723 434.214100,1646.334416"/>
    <poly id="1232773503" type="unknown" color="51,128,255" fill="1" layer="-1.00" shape="436.686478,1648.005715 435.901779,1647.941259 435.187545,1647.622258 434.585874,1647.060292 434.214100,1646.334416 434.096544,1645.533723 434.257781,1644.725106 434.679531,1644.030479 435.310493,1643.504770 436.082227,1643.224912 436.901590,1643.212048 437.641916,1643.464735 438.270060,1643.927083 438.710276,1644.576025 438.929796,1645.322370 438.887160,1646.099033 438.608586,1646.828597 438.111976,1647.422451 437.440057,1647.836672 436.686478,1648.005715"/>
    <poly id="1232773504" type="unknown" color="51,128,255" fill="0" layer="-1.00" shape="410.664162,1644.445086 410.642024,1646.387705 411.112919,1648.791131 412.132829,1651.189712 440.173424,1696.250905 440.846028,1697.257765"/>
    <poly id="1232773505" type="leisure" color="207,245,201" fill="1" layer="-2.00" shape="432.910614,1691.038926 433.846582,1690.427877 432.269229,1688.034041 431.333261,1688.645090 432.910614,1691.038926"/>
    <poly id="1232773506" type="leisure" color="207,245,201" fill="1" layer="-2.00" shape="427.426562,1682.405571 428.370849,1681.805717 426.844412,1679.390258 425.891807,1679.978915 427.426562,1682.405571"/>
    <poly id="1232773507" type="leisure" color="207,245,201" fill="1" layer="-2.00" shape="422.260981,1673.986790 423.205142,1673.398036 421.678828,1670.971478 420.726096,1671.571236 422.260981,1673.986790"/>
    <poly id="1232773508" type="leisure" color="207,245,201" fill="1" layer="-2.00" shape="416.913374,1665.976717 417.857662,1665.376862 416.331218,1662.961406 415.378612,1663.550064 416.913374,1665.976717"/>
    <poly id="1232773509" type="leisure" color="207,245,201" fill="1" layer="-2.00" shape="411.603961,1657.578509 412.556694,1656.978750 411.021802,1654.563198 410.077640,1655.151953 411.603961,1657.578509"/>
    <poly id="1232773510" type="leisure" color="207,245,201" fill="1" layer="-2.00" shape="405.032361,1647.289663 405.976650,1646.689807 404.441754,1644.274257 403.497464,1644.874113 405.032361,1647.289663"/>
    <poly id="1232773512" type="leisure" color="207,245,201" fill="1" layer="-2.00" shape="412.231222,1634.404418 414.833819,1632.802067 414.162217,1631.706404 411.559620,1633.308756 412.231222,1634.404418"/>
    <poly id="1232773513" type="leisure" color="207,245,201" fill="1" layer="-2.00" shape="425.543951,1626.029715 428.146554,1624.427368 427.474827,1623.342806 424.872224,1624.945153 425.543951,1626.029715"/>
    <poly id="1232773514" type="leisure" color="207,245,201" fill="1" layer="-2.00" shape="417.964655,1630.794958 420.567254,1629.192608 419.895526,1628.108046 417.292926,1629.710396 417.964655,1630.794958"/>
    <poly id="1232773515" type="unknown" color="51,128,255" fill="0" layer="-1.00" shape="410.972874,1640.329715 411.071108,1639.120703 411.546937,1638.126934 412.943338,1637.132555 431.198732,1625.616781 443.899321,1617.601503 454.915529,1610.655048"/>
    <poly id="1232773516" type="leisure" color="207,245,201" fill="1" layer="-2.00" shape="440.227822,1632.214453 437.703565,1632.130166 435.026583,1631.366909 432.703668,1629.919357 431.754067,1628.021170 431.198732,1625.616781 412.943338,1637.132555 411.546937,1638.126934 411.071108,1639.120703 410.972874,1640.329715 427.159403,1642.124008 427.859598,1640.710917 429.145750,1639.015850 430.221138,1638.028917 431.905411,1636.971210 433.779858,1636.270939 436.123018,1635.942382 437.877632,1634.641231 439.594328,1632.962176 440.227822,1632.214453"/>
    <poly id="1232773517" type="leisure" color="207,245,201" fill="1" layer="-2.00" shape="443.899321,1617.601503 445.579608,1618.375604 447.286079,1619.816132 448.143800,1621.624455 448.389596,1623.769968 450.462862,1621.928449 453.304358,1619.374052 454.791794,1617.803407 455.306219,1616.388200 455.535051,1614.836512 455.387046,1613.002973 454.915529,1610.655048 443.899321,1617.601503"/>
    <poly id="1232773518" type="landuse" color="194,194,130" fill="1" layer="-3.00" shape="440.227822,1632.214453 442.428924,1629.530628 444.875550,1626.794091 448.389596,1623.769968 448.143800,1621.624455 447.286079,1619.816132 445.579608,1618.375604 443.899321,1617.601503 431.198732,1625.616781 431.754067,1628.021170 432.703668,1629.919357 435.026583,1631.366909 437.703565,1632.130166 440.227822,1632.214453"/>
    <poly id="1232795391" type="leisure" color="207,245,201" fill="1" layer="-2.00" shape="433.710481,1620.871498 436.313088,1619.269154 435.641361,1618.184590 433.038754,1619.786935 433.710481,1620.871498"/>
    <poly id="1232795392" type="leisure" color="207,245,201" fill="1" layer="-2.00" shape="450.621975,1610.195315 453.224590,1608.592976 452.552864,1607.508411 449.950250,1609.110750 450.621975,1610.195315"/>
    <poly id="1232795393" type="leisure" color="207,245,201" fill="1" layer="-2.00" shape="442.480249,1615.398205 445.082860,1613.795864 444.411134,1612.711300 441.808523,1614.313641 442.480249,1615.398205"/>
    <poly id="1232795395" type="leisure" color="207,245,201" fill="1" layer="-2.00" shape="438.444671,1661.947826 442.472093,1660.561566 446.211049,1658.550300 448.703018,1656.280571 450.666316,1652.972318 451.300170,1649.970868 445.742886,1649.241379 444.906185,1650.775036 443.815265,1652.383509 442.458807,1653.578176 440.732947,1654.579896 439.130370,1655.138937 437.699593,1655.444588 437.959841,1658.545048 438.444671,1661.947826"/>
    <poly id="1232795396" type="leisure" color="207,245,201" fill="1" layer="-2.00" shape="494.594323,1663.087748 498.356134,1660.554968 497.722037,1658.393921 497.476257,1656.248406 492.534284,1655.625821 492.788257,1657.793633 493.556286,1660.799970 494.594323,1663.087748"/>
    <poly id="1232795397" type="landuse" color="194,194,130" fill="1" layer="-3.00" shape="451.300170,1649.970868 492.534284,1655.625821 492.788257,1657.793633 493.556286,1660.799970 494.594323,1663.087748 480.125921,1672.081967 478.669344,1671.687882 476.270121,1671.749335 473.624580,1672.673945 470.961099,1674.431012 469.257244,1676.465474 468.216445,1678.862766 456.382194,1686.454897 454.206888,1687.618021 452.700623,1687.878399 451.267863,1687.617816 449.878372,1686.525067 448.363769,1684.553823 445.995973,1681.118474 444.012602,1677.298934 442.264533,1673.581996 440.976854,1670.225575 439.396980,1665.089483 438.444671,1661.947826 442.472093,1660.561566 446.211049,1658.550300 448.703018,1656.280571 450.666316,1652.972318 451.300170,1649.970868"/>
    <poly id="1232795398" type="leisure" color="207,245,201" fill="1" layer="-2.00" shape="481.757885,1680.793549 484.444682,1681.434812 488.400124,1682.656756 492.293881,1684.843884 495.881193,1687.982302 501.824563,1666.711811 501.762453,1666.233711 501.256929,1666.128024 483.545164,1676.628432 482.946002,1678.808717 481.757885,1680.793549"/>