<configuration>
	<input>
		<net-file value="nycmap.net.xml"/>
		<route-files value="nycmap.rou.xml"/>
	</input>
	<time>
		<begin value="0"/>
		<end value="1000"/>
	</time>
</configuration>
