<?xml version="1.0" encoding="UTF-8"?>

<!-- generated on 2024-10-27 10:38:42 by Eclipse SUMO netconvert Version 1.11.0
<configuration xmlns:xsi="http://www.w3.org/2001/XMLSchema-instance" xsi:noNamespaceSchemaLocation="http://sumo.dlr.de/xsd/netconvertConfiguration.xsd">

    <input>
        <osm-files value="nyc.osm"/>
    </input>

    <output>
        <output-file value="nycmap.net.xml"/>
    </output>

    <projection>
        <proj.utm value="true"/>
    </projection>

    <report>
        <aggregate-warnings value="5"/>
    </report>

</configuration>
-->

<net version="1.9" junctionCornerDetail="5" limitTurnSpeed="5.50" xmlns:xsi="http://www.w3.org/2001/XMLSchema-instance" xsi:noNamespaceSchemaLocation="http://sumo.dlr.de/xsd/net_file.xsd">

    <location netOffset="-584082.05,-4507745.06" convBoundary="0.00,0.00,2630.55,2559.47" origBoundary="-74.004380,40.716319,-73.973180,40.739316" projParameter="+proj=utm +zone=18 +ellps=WGS84 +datum=WGS84 +units=m +no_defs"/>

    <type id="highway.bridleway" priority="1" numLanes="1" speed="2.78" allow="pedestrian" oneway="1" width="2.00"/>
    <type id="highway.bus_guideway" priority="1" numLanes="1" speed="27.78" allow="bus" oneway="1"/>
    <type id="highway.cycleway" priority="1" numLanes="1" speed="8.33" allow="bicycle" oneway="0" width="1.00"/>
    <type id="highway.footway" priority="1" numLanes="1" speed="2.78" allow="pedestrian" oneway="1" width="2.00"/>
    <type id="highway.ford" priority="1" numLanes="1" speed="2.78" allow="army" oneway="0"/>
    <type id="highway.living_street" priority="2" numLanes="1" speed="2.78" disallow="tram rail_urban rail rail_electric rail_fast ship" oneway="0"/>
    <type id="highway.motorway" priority="14" numLanes="2" speed="39.44" allow="private emergency authority army vip passenger hov taxi bus coach delivery truck trailer motorcycle evehicle custom1 custom2" oneway="1"/>
    <type id="highway.motorway_link" priority="9" numLanes="1" speed="22.22" allow="private emergency authority army vip passenger hov taxi bus coach delivery truck trailer motorcycle evehicle custom1 custom2" oneway="1"/>
    <type id="highway.path" priority="1" numLanes="1" speed="2.78" allow="pedestrian bicycle" oneway="0" width="2.00"/>
    <type id="highway.pedestrian" priority="1" numLanes="1" speed="2.78" allow="pedestrian" oneway="1" width="2.00"/>
    <type id="highway.primary" priority="12" numLanes="2" speed="27.78" disallow="tram rail_urban rail rail_electric rail_fast ship" oneway="0"/>
    <type id="highway.primary_link" priority="7" numLanes="1" speed="22.22" disallow="tram rail_urban rail rail_electric rail_fast ship" oneway="0"/>
    <type id="highway.raceway" priority="15" numLanes="2" speed="83.33" allow="vip" oneway="0"/>
    <type id="highway.residential" priority="3" numLanes="1" speed="13.89" disallow="tram rail_urban rail rail_electric rail_fast ship" oneway="0"/>
    <type id="highway.secondary" priority="11" numLanes="1" speed="27.78" disallow="tram rail_urban rail rail_electric rail_fast ship" oneway="0"/>
    <type id="highway.secondary_link" priority="6" numLanes="1" speed="22.22" disallow="tram rail_urban rail rail_electric rail_fast ship" oneway="0"/>
    <type id="highway.service" priority="1" numLanes="1" speed="5.56" allow="pedestrian delivery bicycle" oneway="0"/>
    <type id="highway.stairs" priority="1" numLanes="1" speed="1.39" allow="pedestrian" oneway="1" width="2.00"/>
    <type id="highway.step" priority="1" numLanes="1" speed="1.39" allow="pedestrian" oneway="1" width="2.00"/>
    <type id="highway.steps" priority="1" numLanes="1" speed="1.39" allow="pedestrian" oneway="1" width="2.00"/>
    <type id="highway.tertiary" priority="10" numLanes="1" speed="22.22" disallow="tram rail_urban rail rail_electric rail_fast ship" oneway="0"/>
    <type id="highway.tertiary_link" priority="5" numLanes="1" speed="22.22" disallow="tram rail_urban rail rail_electric rail_fast ship" oneway="0"/>
    <type id="highway.track" priority="1" numLanes="1" speed="5.56" allow="pedestrian motorcycle moped bicycle" oneway="0"/>
    <type id="highway.trunk" priority="13" numLanes="2" speed="27.78" disallow="pedestrian bicycle tram rail_urban rail rail_electric rail_fast ship" oneway="0"/>
    <type id="highway.trunk_link" priority="8" numLanes="1" speed="22.22" disallow="pedestrian bicycle tram rail_urban rail rail_electric rail_fast ship" oneway="0"/>
    <type id="highway.unclassified" priority="4" numLanes="1" speed="13.89" disallow="tram rail_urban rail rail_electric rail_fast ship" oneway="0"/>
    <type id="highway.unsurfaced" priority="1" numLanes="1" speed="8.33" disallow="tram rail_urban rail rail_electric rail_fast ship" oneway="0"/>
    <type id="railway.highspeed" priority="21" numLanes="1" speed="69.44" allow="rail_fast" oneway="1"/>
    <type id="railway.light_rail" priority="19" numLanes="1" speed="27.78" allow="rail_urban" oneway="1"/>
    <type id="railway.preserved" priority="16" numLanes="1" speed="27.78" allow="rail" oneway="1"/>
    <type id="railway.rail" priority="20" numLanes="1" speed="44.44" allow="rail" oneway="1"/>
    <type id="railway.subway" priority="18" numLanes="1" speed="27.78" allow="rail_urban" oneway="1"/>
    <type id="railway.tram" priority="17" numLanes="1" speed="13.89" allow="tram" oneway="1"/>

    <edge id=":10049007836_0" function="internal">
        <lane id=":10049007836_0_0" index="0" allow="pedestrian delivery bicycle" speed="6.07" length="7.79" shape="1019.12,1246.13 1018.71,1244.76 1019.19,1243.30 1020.54,1241.76 1022.78,1240.13"/>
    </edge>
    <edge id=":10049007836_1" function="internal">
        <lane id=":10049007836_1_0" index="0" allow="pedestrian delivery bicycle" speed="3.65" length="4.67" shape="1019.12,1246.13 1019.15,1244.69 1019.61,1243.92 1020.50,1243.83 1021.82,1244.41"/>
    </edge>
    <edge id=":10049007836_2" function="internal">
        <lane id=":10049007836_2_0" index="0" disallow="tram rail_urban rail rail_electric rail_fast ship" speed="11.18" length="9.40" shape="1014.81,1245.11 1022.78,1240.13"/>
    </edge>
    <edge id=":10049007836_3" function="internal">
        <lane id=":10049007836_3_0" index="0" allow="pedestrian delivery bicycle" speed="6.11" length="7.77" shape="1014.81,1245.11 1017.25,1243.82 1019.23,1243.27 1020.75,1243.46 1021.82,1244.41"/>
    </edge>
    <edge id=":10049007837_0" function="internal">
        <lane id=":10049007837_0_0" index="0" allow="pedestrian delivery bicycle" speed="3.65" length="4.67" shape="1025.74,1250.65 1025.67,1252.09 1025.19,1252.84 1024.29,1252.91 1022.99,1252.29"/>
    </edge>
    <edge id=":10049007838_0" function="internal">
        <lane id=":10049007838_0_0" index="0" allow="pedestrian delivery bicycle" speed="5.56" length="4.19" shape="1022.89,1252.12 1020.67,1248.56"/>
    </edge>
    <edge id=":10049007838_1" function="internal">
        <lane id=":10049007838_1_0" index="0" allow="pedestrian delivery bicycle" speed="3.65" length="2.34" shape="1022.89,1252.12 1022.96,1250.68 1023.44,1249.92"/>
    </edge>
    <edge id=":10049007838_4" function="internal">
        <lane id=":10049007838_4_0" index="0" allow="pedestrian delivery bicycle" speed="3.65" length="2.34" shape="1023.44,1249.92 1024.33,1249.86 1025.63,1250.48"/>
    </edge>
    <edge id=":10049007838_2" function="internal">
        <lane id=":10049007838_2_0" index="0" allow="pedestrian delivery bicycle" speed="5.56" length="4.29" shape="1023.37,1246.84 1025.63,1250.48"/>
    </edge>
    <edge id=":10049007838_3" function="internal">
        <lane id=":10049007838_3_0" index="0" allow="pedestrian delivery bicycle" speed="3.65" length="2.34" shape="1023.37,1246.84 1023.34,1248.28 1022.88,1249.05"/>
    </edge>
    <edge id=":10049007838_5" function="internal">
        <lane id=":10049007838_5_0" index="0" allow="pedestrian delivery bicycle" speed="3.65" length="2.34" shape="1022.88,1249.05 1021.99,1249.14 1020.67,1248.56"/>
    </edge>
    <edge id=":10054496568_0" function="internal">
        <lane id=":10054496568_0_0" index="0" allow="pedestrian delivery bicycle" speed="11.18" length="0.25" shape="857.83,1262.49 857.96,1262.70"/>
    </edge>
    <edge id=":10054496568_1" function="internal">
        <lane id=":10054496568_1_0" index="0" allow="pedestrian delivery bicycle" speed="11.18" length="0.18" shape="860.65,1260.96 860.55,1260.81"/>
    </edge>
    <edge id=":10198867140_0" function="internal">
        <lane id=":10198867140_0_0" index="0" disallow="tram rail_urban rail rail_electric rail_fast ship" speed="11.18" length="0.10" shape="862.31,2111.10 862.31,2111.10"/>
    </edge>
    <edge id=":10223156262_0" function="internal">
        <lane id=":10223156262_0_0" index="0" disallow="tram rail_urban rail rail_electric rail_fast ship" speed="11.18" length="9.37" shape="1151.20,1254.78 1142.99,1259.29"/>
    </edge>
    <edge id=":10223156262_1" function="internal">
        <lane id=":10223156262_1_0" index="0" allow="pedestrian delivery bicycle" speed="6.06" length="7.80" shape="1151.20,1254.78 1148.67,1255.91 1146.66,1256.31 1145.16,1255.99 1144.17,1254.94"/>
    </edge>
    <edge id=":10223156262_2" function="internal">
        <lane id=":10223156262_2_0" index="0" allow="pedestrian delivery bicycle" speed="6.17" length="7.77" shape="1147.02,1253.47 1147.30,1254.87 1146.72,1256.30 1145.29,1257.78 1142.99,1259.29"/>
    </edge>
    <edge id=":10223156262_3" function="internal">
        <lane id=":10223156262_3_0" index="0" allow="pedestrian delivery bicycle" speed="3.65" length="4.67" shape="1147.02,1253.47 1146.85,1254.91 1146.33,1255.63 1145.43,1255.64 1144.17,1254.94"/>
    </edge>
    <edge id=":10223156263_0" function="internal">
        <lane id=":10223156263_0_0" index="0" allow="pedestrian delivery bicycle" speed="3.65" length="4.67" shape="1134.03,1235.08 1134.20,1233.65 1134.73,1232.93 1135.63,1232.92 1136.88,1233.63"/>
    </edge>
    <edge id=":10223156264_0" function="internal">
        <lane id=":10223156264_0_0" index="0" allow="pedestrian delivery bicycle" speed="5.56" length="5.17" shape="1143.14,1252.93 1140.78,1248.33"/>
    </edge>
    <edge id=":10223156264_1" function="internal">
        <lane id=":10223156264_1_0" index="0" allow="pedestrian delivery bicycle" speed="3.65" length="2.34" shape="1143.14,1252.93 1143.30,1251.50 1143.82,1250.78"/>
    </edge>
    <edge id=":10223156264_4" function="internal">
        <lane id=":10223156264_4_0" index="0" allow="pedestrian delivery bicycle" speed="3.65" length="2.34" shape="1143.82,1250.78 1144.72,1250.76 1145.98,1251.47"/>
    </edge>
    <edge id=":10223156264_2" function="internal">
        <lane id=":10223156264_2_0" index="0" allow="pedestrian delivery bicycle" speed="5.56" length="5.16" shape="1143.63,1246.87 1145.98,1251.47"/>
    </edge>
    <edge id=":10223156264_3" function="internal">
        <lane id=":10223156264_3_0" index="0" allow="pedestrian delivery bicycle" speed="3.65" length="2.34" shape="1143.63,1246.87 1143.46,1248.31 1142.93,1249.03"/>
    </edge>
    <edge id=":10223156264_5" function="internal">
        <lane id=":10223156264_5_0" index="0" allow="pedestrian delivery bicycle" speed="3.65" length="2.34" shape="1142.93,1249.03 1142.03,1249.03 1140.78,1248.33"/>
    </edge>
    <edge id=":10628055569_0" function="internal">
        <lane id=":10628055569_0_0" index="0" allow="pedestrian delivery bicycle" speed="5.56" length="3.33" shape="564.35,1723.08 562.61,1720.25"/>
    </edge>
    <edge id=":10628055569_1" function="internal">
        <lane id=":10628055569_1_0" index="0" allow="pedestrian delivery bicycle" speed="3.65" length="2.34" shape="564.35,1723.08 564.36,1721.64 564.81,1720.87"/>
    </edge>
    <edge id=":10628055569_4" function="internal">
        <lane id=":10628055569_4_0" index="0" allow="pedestrian delivery bicycle" speed="3.65" length="2.34" shape="564.81,1720.87 565.70,1720.76 567.03,1721.33"/>
    </edge>
    <edge id=":10628055569_2" function="internal">
        <lane id=":10628055569_2_0" index="0" allow="pedestrian delivery bicycle" speed="5.56" length="3.21" shape="565.35,1718.59 567.03,1721.33"/>
    </edge>
    <edge id=":10628055569_3" function="internal">
        <lane id=":10628055569_3_0" index="0" allow="pedestrian delivery bicycle" speed="3.65" length="2.34" shape="565.35,1718.59 565.28,1720.03 564.81,1720.79"/>
    </edge>
    <edge id=":10628055569_5" function="internal">
        <lane id=":10628055569_5_0" index="0" allow="pedestrian delivery bicycle" speed="3.65" length="2.34" shape="564.81,1720.79 563.91,1720.86 562.61,1720.25"/>
    </edge>
    <edge id=":10695321443_0" function="internal">
        <lane id=":10695321443_0_0" index="0" disallow="tram rail_urban rail rail_electric rail_fast ship" speed="11.18" length="0.40" shape="795.54,1559.01 795.32,1558.67"/>
    </edge>
    <edge id=":11032214440_0" function="internal">
        <lane id=":11032214440_0_0" index="0" allow="pedestrian delivery bicycle" speed="5.56" length="5.03" shape="1350.52,1488.09 1348.15,1483.66"/>
    </edge>
    <edge id=":11032214440_1" function="internal">
        <lane id=":11032214440_1_0" index="0" allow="pedestrian delivery bicycle" speed="3.65" length="2.34" shape="1350.52,1488.09 1350.67,1486.66 1351.19,1485.94"/>
    </edge>
    <edge id=":11032214440_4" function="internal">
        <lane id=":11032214440_4_0" index="0" allow="pedestrian delivery bicycle" speed="3.65" length="2.34" shape="1351.19,1485.94 1352.09,1485.92 1353.35,1486.61"/>
    </edge>
    <edge id=":11032214440_2" function="internal">
        <lane id=":11032214440_2_0" index="0" allow="pedestrian delivery bicycle" speed="5.56" length="5.09" shape="1350.96,1482.13 1353.35,1486.61"/>
    </edge>
    <edge id=":11032214440_3" function="internal">
        <lane id=":11032214440_3_0" index="0" allow="pedestrian delivery bicycle" speed="3.65" length="2.34" shape="1350.96,1482.13 1350.83,1483.56 1350.32,1484.30"/>
    </edge>
    <edge id=":11032214440_5" function="internal">
        <lane id=":11032214440_5_0" index="0" allow="pedestrian delivery bicycle" speed="3.65" length="2.34" shape="1350.32,1484.30 1349.43,1484.33 1348.15,1483.66"/>
    </edge>
    <edge id=":11032214441_0" function="internal">
        <lane id=":11032214441_0_0" index="0" disallow="tram rail_urban rail rail_electric rail_fast ship" speed="11.18" length="9.40" shape="1358.65,1490.01 1350.39,1494.50"/>
    </edge>
    <edge id=":11032214441_1" function="internal">
        <lane id=":11032214441_1_0" index="0" allow="pedestrian delivery bicycle" speed="6.06" length="7.80" shape="1358.65,1490.01 1356.13,1491.16 1354.11,1491.57 1352.61,1491.26 1351.62,1490.21"/>
    </edge>
    <edge id=":11032214441_2" function="internal">
        <lane id=":11032214441_2_0" index="0" allow="pedestrian delivery bicycle" speed="6.13" length="7.78" shape="1354.46,1488.73 1354.75,1490.13 1354.16,1491.56 1352.71,1493.02 1350.39,1494.50"/>
    </edge>
    <edge id=":11032214441_3" function="internal">
        <lane id=":11032214441_3_0" index="0" allow="pedestrian delivery bicycle" speed="3.65" length="4.67" shape="1354.46,1488.73 1354.30,1490.17 1353.78,1490.89 1352.89,1490.91 1351.62,1490.21"/>
    </edge>
    <edge id=":11070155328_0" function="internal">
        <lane id=":11070155328_0_0" index="0" disallow="tram rail_urban rail rail_electric rail_fast ship" speed="11.18" length="5.27" shape="871.63,1835.34 876.28,1832.84"/>
    </edge>
    <edge id=":11070155329_0" function="internal">
        <lane id=":11070155329_0_0" index="0" disallow="tram rail_urban rail rail_electric rail_fast ship" speed="11.18" length="5.08" shape="886.56,1827.31 891.04,1824.91"/>
    </edge>
    <edge id=":11436610909_0" function="internal">
        <lane id=":11436610909_0_0" index="0" disallow="tram rail_urban rail rail_electric rail_fast ship" speed="11.18" length="0.30" shape="629.34,1674.67 629.09,1674.84"/>
    </edge>
    <edge id=":11436610909_1" function="internal">
        <lane id=":11436610909_1_0" index="0" disallow="tram rail_urban rail rail_electric rail_fast ship" speed="11.18" length="0.30" shape="627.37,1672.13 627.63,1671.97"/>
    </edge>
    <edge id=":11608923663_0" function="internal">
        <lane id=":11608923663_0_0" index="0" disallow="tram rail_urban rail rail_electric rail_fast ship" speed="11.18" length="5.24" shape="1087.80,1719.12 1092.41,1716.63"/>
    </edge>
    <edge id=":11608923664_0" function="internal">
        <lane id=":11608923664_0_0" index="0" disallow="tram rail_urban rail rail_electric rail_fast ship" speed="11.18" length="5.32" shape="1069.36,1729.16 1074.04,1726.63"/>
    </edge>
    <edge id=":12009866790_0" function="internal">
        <lane id=":12009866790_0_0" index="0" allow="pedestrian delivery bicycle" speed="11.18" length="3.89" shape="605.59,1404.09 603.51,1400.81"/>
    </edge>
    <edge id=":12009866790_1" function="internal">
        <lane id=":12009866790_1_0" index="0" allow="pedestrian delivery bicycle" speed="3.65" length="2.34" shape="605.59,1404.09 605.62,1402.65 606.08,1401.88"/>
    </edge>
    <edge id=":12009866790_4" function="internal">
        <lane id=":12009866790_4_0" index="0" allow="pedestrian delivery bicycle" speed="3.65" length="2.34" shape="606.08,1401.88 606.97,1401.79 608.29,1402.38"/>
    </edge>
    <edge id=":12009866790_2" function="internal">
        <lane id=":12009866790_2_0" index="0" allow="pedestrian delivery bicycle" speed="11.18" length="3.89" shape="606.21,1399.09 608.29,1402.38"/>
    </edge>
    <edge id=":12009866790_3" function="internal">
        <lane id=":12009866790_3_0" index="0" allow="pedestrian delivery bicycle" speed="3.65" length="2.34" shape="606.21,1399.09 606.18,1400.54 605.71,1401.30"/>
    </edge>
    <edge id=":12009866790_5" function="internal">
        <lane id=":12009866790_5_0" index="0" allow="pedestrian delivery bicycle" speed="3.65" length="2.34" shape="605.71,1401.30 604.82,1401.39 603.51,1400.81"/>
    </edge>
    <edge id=":12009866791_0" function="internal">
        <lane id=":12009866791_0_0" index="0" allow="pedestrian delivery bicycle" speed="11.18" length="4.17" shape="670.64,1363.10 668.43,1359.56"/>
    </edge>
    <edge id=":12009866791_1" function="internal">
        <lane id=":12009866791_1_0" index="0" allow="pedestrian delivery bicycle" speed="3.65" length="2.34" shape="670.64,1363.10 670.68,1361.66 671.15,1360.89"/>
    </edge>
    <edge id=":12009866791_4" function="internal">
        <lane id=":12009866791_4_0" index="0" allow="pedestrian delivery bicycle" speed="3.65" length="2.34" shape="671.15,1360.89 672.04,1360.81 673.35,1361.40"/>
    </edge>
    <edge id=":12009866791_2" function="internal">
        <lane id=":12009866791_2_0" index="0" allow="pedestrian delivery bicycle" speed="11.18" length="4.17" shape="671.14,1357.86 673.35,1361.40"/>
    </edge>
    <edge id=":12009866791_3" function="internal">
        <lane id=":12009866791_3_0" index="0" allow="pedestrian delivery bicycle" speed="3.65" length="2.34" shape="671.14,1357.86 671.10,1359.31 670.63,1360.07"/>
    </edge>
    <edge id=":12009866791_5" function="internal">
        <lane id=":12009866791_5_0" index="0" allow="pedestrian delivery bicycle" speed="3.65" length="2.34" shape="670.63,1360.07 669.74,1360.16 668.43,1359.56"/>
    </edge>
    <edge id=":12009866801_0" function="internal">
        <lane id=":12009866801_0_0" index="0" allow="pedestrian delivery bicycle" speed="11.18" length="2.00" shape="668.32,1359.39 667.26,1357.70"/>
    </edge>
    <edge id=":12009866801_1" function="internal">
        <lane id=":12009866801_1_0" index="0" allow="pedestrian delivery bicycle" speed="3.65" length="2.34" shape="668.32,1359.39 668.36,1357.95 668.83,1357.19"/>
    </edge>
    <edge id=":12009866801_4" function="internal">
        <lane id=":12009866801_4_0" index="0" allow="pedestrian delivery bicycle" speed="3.65" length="2.34" shape="668.83,1357.19 669.72,1357.10 671.03,1357.70"/>
    </edge>
    <edge id=":12009866801_2" function="internal">
        <lane id=":12009866801_2_0" index="0" allow="pedestrian delivery bicycle" speed="11.18" length="1.99" shape="669.98,1356.00 671.03,1357.70"/>
    </edge>
    <edge id=":12009866801_3" function="internal">
        <lane id=":12009866801_3_0" index="0" allow="pedestrian delivery bicycle" speed="3.65" length="2.34" shape="669.98,1356.00 669.93,1357.45 669.46,1358.21"/>
    </edge>
    <edge id=":12009866801_5" function="internal">
        <lane id=":12009866801_5_0" index="0" allow="pedestrian delivery bicycle" speed="3.65" length="2.34" shape="669.46,1358.21 668.57,1358.29 667.26,1357.70"/>
    </edge>
    <edge id=":12009866802_0" function="internal">
        <lane id=":12009866802_0_0" index="0" allow="pedestrian delivery bicycle" speed="11.18" length="2.00" shape="603.40,1400.64 602.33,1398.96"/>
    </edge>
    <edge id=":12009866802_1" function="internal">
        <lane id=":12009866802_1_0" index="0" allow="pedestrian delivery bicycle" speed="3.65" length="2.34" shape="603.40,1400.64 603.43,1399.20 603.89,1398.43"/>
    </edge>
    <edge id=":12009866802_4" function="internal">
        <lane id=":12009866802_4_0" index="0" allow="pedestrian delivery bicycle" speed="3.65" length="2.34" shape="603.89,1398.43 604.78,1398.34 606.10,1398.92"/>
    </edge>
    <edge id=":12009866802_2" function="internal">
        <lane id=":12009866802_2_0" index="0" allow="pedestrian delivery bicycle" speed="11.18" length="2.00" shape="605.03,1397.24 606.10,1398.92"/>
    </edge>
    <edge id=":12009866802_3" function="internal">
        <lane id=":12009866802_3_0" index="0" allow="pedestrian delivery bicycle" speed="3.65" length="2.34" shape="605.03,1397.24 605.00,1398.68 604.54,1399.45"/>
    </edge>
    <edge id=":12009866802_5" function="internal">
        <lane id=":12009866802_5_0" index="0" allow="pedestrian delivery bicycle" speed="3.65" length="2.34" shape="604.54,1399.45 603.65,1399.54 602.33,1398.96"/>
    </edge>
    <edge id=":12009866805_0" function="internal">
        <lane id=":12009866805_0_0" index="0" disallow="tram rail_urban rail rail_electric rail_fast ship" speed="11.18" length="0.10" shape="572.91,1429.42 572.91,1429.42"/>
    </edge>
    <edge id=":12009866806_0" function="internal">
        <lane id=":12009866806_0_0" index="0" disallow="tram rail_urban rail rail_electric rail_fast ship" speed="11.18" length="0.10" shape="720.38,1336.62 720.38,1336.62"/>
    </edge>
    <edge id=":12179524679_0" function="internal">
        <lane id=":12179524679_0_0" index="0" disallow="tram rail_urban rail rail_electric rail_fast ship" speed="11.18" length="0.10" shape="867.89,1837.36 867.89,1837.36"/>
    </edge>
    <edge id=":12179524680_0" function="internal">
        <lane id=":12179524680_0_0" index="0" disallow="tram rail_urban rail rail_electric rail_fast ship" speed="11.18" length="0.10" shape="874.02,1820.04 874.02,1820.04"/>
    </edge>
    <edge id=":12179524681_0" function="internal">
        <lane id=":12179524681_0_0" index="0" disallow="tram rail_urban rail rail_electric rail_fast ship" speed="11.18" length="0.10" shape="724.65,1914.42 724.65,1914.42"/>
    </edge>
    <edge id=":12179524682_0" function="internal">
        <lane id=":12179524682_0_0" index="0" disallow="tram rail_urban rail rail_electric rail_fast ship" speed="11.18" length="0.10" shape="741.23,1919.95 741.23,1919.95"/>
        <lane id=":12179524682_0_1" index="1" disallow="tram rail_urban rail rail_electric rail_fast ship" speed="11.18" length="0.10" shape="744.04,1918.41 744.04,1918.41"/>
    </edge>
    <edge id=":12179524683_0" function="internal">
        <lane id=":12179524683_0_0" index="0" disallow="tram rail_urban rail rail_electric rail_fast ship" speed="11.18" length="0.30" shape="1065.29,1731.33 1065.56,1731.19"/>
    </edge>
    <edge id=":12179524689_0" function="internal">
        <lane id=":12179524689_0_0" index="0" disallow="tram rail_urban rail rail_electric rail_fast ship" speed="11.18" length="0.30" shape="1154.90,1683.00 1155.16,1682.86"/>
    </edge>
    <edge id=":12179524690_0" function="internal">
        <lane id=":12179524690_0_0" index="0" disallow="tram rail_urban rail rail_electric rail_fast ship" speed="11.18" length="0.30" shape="1173.63,1660.16 1173.68,1660.44"/>
        <lane id=":12179524690_0_1" index="1" disallow="tram rail_urban rail rail_electric rail_fast ship" speed="11.18" length="0.30" shape="1170.47,1660.68 1170.52,1660.97"/>
        <lane id=":12179524690_0_2" index="2" disallow="tram rail_urban rail rail_electric rail_fast ship" speed="11.18" length="0.30" shape="1167.31,1661.19 1167.36,1661.50"/>
    </edge>
    <edge id=":12179524693_0" function="internal">
        <lane id=":12179524693_0_0" index="0" disallow="tram rail_urban rail rail_electric rail_fast ship" speed="11.18" length="0.29" shape="1186.92,1736.22 1186.98,1736.55"/>
        <lane id=":12179524693_0_1" index="1" disallow="tram rail_urban rail rail_electric rail_fast ship" speed="11.18" length="0.29" shape="1183.77,1736.80 1183.82,1737.09"/>
        <lane id=":12179524693_0_2" index="2" disallow="tram rail_urban rail rail_electric rail_fast ship" speed="11.18" length="0.29" shape="1180.63,1737.39 1180.67,1737.63"/>
    </edge>
    <edge id=":12179524694_0" function="internal">
        <lane id=":12179524694_0_0" index="0" disallow="tram rail_urban rail rail_electric rail_fast ship" speed="11.18" length="0.28" shape="1268.55,1620.94 1268.79,1620.81"/>
    </edge>
    <edge id=":12179524695_0" function="internal">
        <lane id=":12179524695_0_0" index="0" disallow="tram rail_urban rail rail_electric rail_fast ship" speed="11.18" length="0.30" shape="1275.43,1604.07 1275.29,1603.81"/>
        <lane id=":12179524695_0_1" index="1" disallow="tram rail_urban rail rail_electric rail_fast ship" speed="11.18" length="0.30" shape="1278.25,1602.56 1278.11,1602.29"/>
    </edge>
    <edge id=":12179524695_2" function="internal">
        <lane id=":12179524695_2_0" index="0" disallow="tram rail_urban rail rail_electric rail_fast ship" speed="11.18" length="0.30" shape="1283.75,1599.27 1283.89,1599.54"/>
        <lane id=":12179524695_2_1" index="1" disallow="tram rail_urban rail rail_electric rail_fast ship" speed="11.18" length="0.30" shape="1280.93,1600.78 1281.07,1601.05"/>
    </edge>
    <edge id=":12179524696_0" function="internal">
        <lane id=":12179524696_0_0" index="0" disallow="tram rail_urban rail rail_electric rail_fast ship" speed="11.18" length="0.34" shape="1287.18,1625.99 1287.01,1625.67"/>
        <lane id=":12179524696_0_1" index="1" disallow="tram rail_urban rail rail_electric rail_fast ship" speed="11.18" length="0.34" shape="1290.00,1624.47 1289.85,1624.20"/>
    </edge>
    <edge id=":12179524696_2" function="internal">
        <lane id=":12179524696_2_0" index="0" disallow="tram rail_urban rail rail_electric rail_fast ship" speed="11.18" length="0.23" shape="1295.54,1621.25 1295.63,1621.43"/>
        <lane id=":12179524696_2_1" index="1" disallow="tram rail_urban rail rail_electric rail_fast ship" speed="11.18" length="0.23" shape="1292.70,1622.73 1292.82,1622.95"/>
    </edge>
    <edge id=":12179524697_0" function="internal">
        <lane id=":12179524697_0_0" index="0" disallow="tram rail_urban rail rail_electric rail_fast ship" speed="11.18" length="0.30" shape="1458.48,1518.60 1458.74,1518.46"/>
    </edge>
    <edge id=":12179524699_0" function="internal">
        <lane id=":12179524699_0_0" index="0" disallow="tram rail_urban rail rail_electric rail_fast ship" speed="11.18" length="0.30" shape="1478.33,1523.08 1478.19,1522.82"/>
        <lane id=":12179524699_0_1" index="1" disallow="tram rail_urban rail rail_electric rail_fast ship" speed="11.18" length="0.30" shape="1481.15,1521.56 1481.01,1521.30"/>
        <lane id=":12179524699_0_2" index="2" disallow="tram rail_urban rail rail_electric rail_fast ship" speed="11.18" length="0.30" shape="1483.97,1520.05 1483.82,1519.79"/>
        <lane id=":12179524699_0_3" index="3" disallow="tram rail_urban rail rail_electric rail_fast ship" speed="11.18" length="0.30" shape="1486.79,1518.54 1486.64,1518.27"/>
    </edge>
    <edge id=":12179524700_0" function="internal">
        <lane id=":12179524700_0_0" index="0" disallow="tram rail_urban rail rail_electric rail_fast ship" speed="11.18" length="0.30" shape="1659.77,1410.49 1660.04,1410.35"/>
    </edge>
    <edge id=":12179560526_0" function="internal">
        <lane id=":12179560526_0_0" index="0" disallow="tram rail_urban rail rail_electric rail_fast ship" speed="11.18" length="0.10" shape="1203.69,1743.83 1203.69,1743.83"/>
    </edge>
    <edge id=":12179560530_0" function="internal">
        <lane id=":12179560530_0_0" index="0" disallow="tram rail_urban rail rail_electric rail_fast ship" speed="11.18" length="0.43" shape="1202.52,1822.86 1202.61,1823.42"/>
        <lane id=":12179560530_0_1" index="1" disallow="tram rail_urban rail rail_electric rail_fast ship" speed="11.18" length="0.43" shape="1199.37,1823.42 1199.43,1823.85"/>
        <lane id=":12179560530_0_2" index="2" disallow="tram rail_urban rail rail_electric rail_fast ship" speed="11.18" length="0.43" shape="1196.22,1823.99 1196.26,1824.28"/>
    </edge>
    <edge id=":12179560531_0" function="internal">
        <lane id=":12179560531_0_0" index="0" disallow="tram rail_urban rail rail_electric rail_fast ship" speed="11.18" length="0.10" shape="1183.32,1846.07 1183.32,1846.07"/>
    </edge>
    <edge id=":12179560533_0" function="internal">
        <lane id=":12179560533_0_0" index="0" disallow="tram rail_urban rail rail_electric rail_fast ship" speed="11.18" length="0.26" shape="1215.16,1908.20 1215.21,1908.50"/>
        <lane id=":12179560533_0_1" index="1" disallow="tram rail_urban rail rail_electric rail_fast ship" speed="11.18" length="0.26" shape="1212.02,1908.80 1212.05,1909.01"/>
    </edge>
    <edge id=":12179560534_0" function="internal">