<?xml version="1.0" encoding="UTF-8"?>

<!-- generated on 2024-11-07 06:16:08 by Eclipse SUMO duarouter Version 1.11.0
<configuration xmlns:xsi="http://www.w3.org/2001/XMLSchema-instance" xsi:noNamespaceSchemaLocation="http://sumo.dlr.de/xsd/duarouterConfiguration.xsd">

    <input>
        <net-file value="nycmap.net.xml"/>
        <route-files value="trips.trips.xml"/>
    </input>

    <output>
        <output-file value="nycmap.rou.xml"/>
        <alternatives-output value="nycmap.rou.alt.xml"/>
    </output>

    <time>
        <begin value="0"/>
        <end value="1000"/>
    </time>

    <report>
        <no-warnings value="true"/>
        <ignore-errors value="true"/>
        <no-step-log value="true"/>
    </report>

</configuration>
-->

<routes xmlns:xsi="http://www.w3.org/2001/XMLSchema-instance" xsi:noNamespaceSchemaLocation="http://sumo.dlr.de/xsd/routes_file.xsd">
    <vehicle id="0" depart="0.00">
        <route edges="5670651#1 5670651#2 5670651#3 5670651#4 5670651#5 5670651#6 5670651#7 1050255674#0 1050255674#1 1050255674#2 1050255674#3 1050255676#0 1050255676#1 1050255676#2 1062029895#0 1062029895#1 5673089#0 5673089#1 5673089#2 5673089#3 5673089#4 1050255677#0 1050255677#1 1050255677#2 1050255677#3 464522037#0 464522037#1 464522037#2 420526338#0 420526338#1 420526338#2 420526338#3 -420526338#3 -420526338#2 -420526338#1"/>
    </vehicle>
    <vehicle id="1" depart="1.00">
        <route edges="157012387#1 157012387#2 706833047#0 706833047#1 706833047#2 433124968#6 433124968#7 433124968#8 433124968#9 433124968#10 433124968#11 433124968#12 433124968#13 433124968#14 433124968#15 5670651#0 5670651#1 5670651#2 5670651#3 5670651#4 5670651#5 5670651#6 5670651#7 1050255674#0 1050255674#1 1050255674#2 1050255674#3 1050255676#0 1050255676#1 1050255676#2 5672896#0 5672896#1 5672896#2 5672896#3 5672896#4 5672896#5 5672896#6 5672896#7 5672896#8 5672896#9 5672896#10 5672896#11 5672896#12 5672896#13 1315848405#3"/>
    </vehicle>
    <vehicle id="2" depart="2.00">
        <route edges="5671663#1 5671663#2 5671663#3 5671663#4 5671663#5 5671663#6 5671663#7 5671663#8 5671663#9 889114527#0 889114527#1 889114527#2 889114527#3 889114527#4 889114527#5 439933929#0 439933929#1 1057563582 68674966 1027206713#0 1027206713#1 24264070#0 24264070#1 24264070#2 24264070#3 157012398#0 157012398#1 157012398#2 157012398#3 157012398#4 157012398#5 5672040#0 5672040#1 5672040#2 5672040#3 5672040#4 5672040#5 386211349#0 386211349#1 386211349#2 706833046#3 706833046#4 706833046#5 5670814#14 5670814#15"/>
    </vehicle>
    <vehicle id="3" depart="3.00">
        <route edges="630828592#1 630828592#2 -630828592#2 -630828592#1 -630828592#0 -584971395#2 -584971395#1 -584971395#0 438389785#0 438389785#1 438389785#2 945473887#0 945473887#1 945473887#2 496992369#0 496992369#1 496992369#2 496992369#3 496992369#4 496992369#5 496992369#6 496992369#7 496992369#8 496992369#9 496992369#10 496992369#11 496992369#12 496992369#13 496992369#14 496992369#15 496992369#16 496992369#17 496992369#18 496992369#19 496992369#20 496992369#21 496992369#22 496992369#23 496992369#24 5671774#0 5671774#1 5671774#2 5671774#3 5671774#4 -5671774#4 -5671774#3 -5671774#2 -5671774#1 -5671774#0 -630828594#4 -630828594#3"/>
    </vehicle>
    <vehicle id="4" depart="4.00">
        <route edges="433124968#4 433124968#5 433124968#6 433124968#7 433124968#8 433124968#9 433124968#10 433124968#11 433124968#12 433124968#13 433124968#14 433124968#15 5670651#0 5670651#1 5670651#2 5670651#3 5670651#4 5670651#5 5670651#6 5670651#7 1050255674#0 1050255674#1 1050255674#2 1050255674#3 1050255676#0 1050255676#1 1050255676#2 5672896#0 5672896#1 5672896#2 5672896#3 5672896#4 5672896#5 5672896#6 5672896#7 5672896#8 5672896#9 5672896#10 5672896#11 5672896#12 5671429#2 5671429#3 5671429#4 5671429#5 5671429#6 5671429#7 5671429#8 5671429#9 5671429#10 5671429#11 5671429#12 496992369#15 496992369#16 496992369#17 496992369#18 496992369#19 496992369#20 496992369#21 496992369#22 496992369#23 496992369#24 438389786#0 438389786#1 438389786#2 1080982432 1080982431#0 1080982431#1 1080982431#2 -1080982431#2 -1080982431#1 -1080982431#0 -1080982432 -438389786#2"/>
    </vehicle>
    <vehicle id="5" depart="5.00">
        <route edges="1315848405#1 421825692#2 421825692#3 421825692#4 421825692#5 421825692#6 421825692#7 421825692#8 1315847473#0 1315847473#1 1315847473#2 1315847472#0 1315847472#1 1315847472#2 1315847472#3 1315847472#4 1315847472#5 1315847472#6 1315847472#7 68668558#0 68668558#1 68668558#2 68668558#3 451904646#0 451904646#1 451904646#2 451904646#3 196117006#0 196117006#1 5670782#0 5670782#1 5670232#0 5670232#1 5670232#2 847950378#0 847950378#1 847950378#2 479642038#0 479642038#1"/>
    </vehicle>
    <vehicle id="6" depart="6.00">
        <route edges="-438388090#1 -438388090#0 -1080982431#2 -1080982431#1 -1080982431#0 -1080982432 -438389786#2 -438389786#1 -438389786#0 -496992369#24 -496992369#23 -496992369#22 -496992369#21 -496992369#20 -496992369#19 -496992369#18 -496992369#17 -496992369#16 -496992369#15 -496992369#14 -496992369#13 -496992369#12 -496992369#11 -496992369#10 -496992369#9 -496992369#8 -496992369#7 -496992369#6 -496992369#5 -496992369#4 -496992369#3 -496992369#2 -496992369#1 -496992369#0 767398933#0 767398933#1 653471089#0 653471089#1 653471089#2 5673533 653471090#0 653471090#1 653471090#2 653471090#3 1315847472#4 1315847472#5 1315847472#6 1315847472#7 464522037#0 464522037#1 464522037#2 464522037#3 464522037#4 464522037#5 464522037#6 464522037#7 464522037#8 5672910#0 5672910#1 5672910#2 5672910#3 5672910#4 5672910#5 5672873#3 5672873#4 1149701654#0 1149701654#1 1149701654#2 1149701654#3"/>
    </vehicle>
    <vehicle id="7" depart="7.00">
        <route edges="5670814#1 5670814#2 5670814#3 5670814#4 5670814#5 5670814#6 5670814#7 5670814#8 5670814#9 5670814#10 5670814#11 5670814#12 5670814#13 5670814#14 5670814#15 5670814#16 5672040#3 5672040#4 5672040#5 727644280#0 727644280#1 727644280#2 727644280#3 727644280#4 727644280#5 5673614 352705238#0 352705238#1 352705238#2 352705238#3 352705238#4 352705238#5 352705238#6 352705238#7 5673093#0 5673093#1 5673093#2 5673093#3 420358896#5 420358896#6 420358896#7 420358897#0 420358897#1 420358897#2 905095202#0 905095202#1 46139037#0 46139037#1 46139037#2 46139037#3 653471091 439933946 439933928#0 439933928#1 439933928#2 5669962#14 5669962#15 5669962#16 5669962#17 496992369#5 496992369#6 496992369#7 496992369#8 496992369#9 496992369#10 496992369#11 496992369#12 496992369#13 496992369#14 496992369#15 496992369#16 496992369#17"/>
    </vehicle>
    <vehicle id="8" depart="8.00">
        <route edges="1315848405#1 421825692#2 421825692#3 421825692#4 421825692#5 421825692#6 421825692#7 421825692#8 1315847473#0 1315847473#1 1315847473#2 1315847472#0 1315847472#1 1315847472#2 1315847472#3 5671663#0 5671663#1 5671663#2 5671663#3 5671663#4 5671663#5 5672896#4 5672896#5 5672896#6 5672896#7 5669962#4 5669962#5"/>
    </vehicle>
    <vehicle id="9" depart="9.00">
        <route edges="5672604#1 5672604#2 5672604#3 496992369#10 496992369#11 496992369#12 496992369#13 496992369#14 496992369#15 496992369#16 496992369#17 496992369#18 496992369#19 496992369#20 496992369#21 496992369#22 496992369#23 496992369#24 438389786#0 438389786#1 438389786#2 1080982432 1080982431#0 1080982431#1 1080982431#2 -1080982431#2 -1080982431#1 -1080982431#0 -1080982432"/>
    </vehicle>
    <vehicle id="10" depart="10.00">
        <route edges="5672178#1 5672178#2 5672178#3 653471088#0 653471088#1 439933928#0 439933928#1 439933928#2 5669962#14 5669962#15 5669962#16 5669962#17 5669962#18 5669962#19 5669962#20 5669962#21 5669962#22 1021949723#0 1021949723#1 1021949723#2 1021949723#3 1021949724#0 1021949724#1 1021949724#2 1021949725#0 1021949725#1 1021949725#2 1021949726#0 1021949726#1 1021949726#2 5671158#0 5671158#1"/>
    </vehicle>
    <vehicle id="11" depart="11.00">
        <route edges="25199883#7 25199883#8 25199883#9 25199883#10 25199883#11 1296083558#0 1296083558#1 706833045#0 706833045#1 706833045#2 706833045#3 1296083557#0 1296083557#1 481047237#0 481047237#1 481047237#2 727644280#3 727644280#4 727644280#5 5671743#0 5671743#1 5671743#2 5671743#3 5671743#4 5671743#5 1050255675#0 1050255675#1 1050255675#2 1050255675#3 1050255675#4 5672896#0 5672896#1 5672896#2 5672896#3 5672896#4 5672896#5 5672896#6 5672896#7 5672896#8 5672896#9 5672896#10 5672607#3 5672607#4 5672607#5 195743341#3 195743341#4 1027206712#0 1027206712#1 1027206712#2 1027206711#0 1027206711#1"/>
    </vehicle>
    <vehicle id="12" depart="12.00">
        <route edges="727649620#1 727649620#2 727649620#3 1027206711#0 1027206711#1 1027206711#2 1027206711#3 889114527#0 889114527#1 889114527#2 889114527#3 889114527#4 889114527#5 439933929#0 439933929#1 1057563582 68674966 1027206713#0 1027206713#1 -1232833559#1 -1232833559#0 352705236#0"/>
    </vehicle>
    <vehicle id="13" depart="13.00">
        <route edges="-945523294#0 -1315845428#2 -1315845428#1 -1315845428#0 -1315845427#2 -1315845427#1 -1315845427#0 -630828592#5 -630828592#4 -630828592#3 -630828592#2 -630828592#1 -630828592#0 -584971395#2 -584971395#1 -584971395#0 5670232#0 5670232#1 5670232#2 847950378#0 847950378#1 847950378#2 1059551869#0 1059551869#1 955261516#0 955261516#1 955261516#2 955261515#0 955261515#1 955261515#2 955261515#3 1068266120#0 1068266120#1 955261514#0 955261514#1 1021949718#0 1021949718#1"/>
    </vehicle>
    <vehicle id="15" depart="15.00">
        <route edges="5672604#1 5672604#2 5672604#3 5672604#4 5672604#5 5672604#6 5672604#7 1144268432#0 1144268432#1 1144268432#2 1144268432#3 5672176#0 5672176#1 5672176#2 5672176#3 1315848405#0 1315848405#1 421825692#2 421825692#3 5671429#4 5671429#5"/>
    </vehicle>
    <vehicle id="16" depart="16.00">
        <route edges="479642039#1 479642039#2 1021949726#0 1021949726#1 1021949726#2 1021949726#3 1021949726#4 1021949726#5 -630828592#2 -630828592#1 -630828592#0 -584971395#2 -584971395#1 -584971395#0 5670232#0 5670232#1 5670232#2 847950378#0 847950378#1"/>
    </vehicle>
    <vehicle id="17" depart="17.00">
        <route edges="420358897#1 420358897#2 905095202#0 905095202#1 46139037#0 46139037#1 46139037#2 46139037#3 653471091 439933946 439933928#0 439933928#1 439933928#2 5669962#14 5669962#15 5669962#16 5669962#17 496992369#5 496992369#6 496992369#7"/>
    </vehicle>
    <vehicle id="18" depart="18.00">
        <route edges="5672607#4 5672607#5 195743341#3 195743341#4 1027206712#0 1027206712#1 1027206712#2 1027206711#0 1027206711#1 1027206711#2 1027206711#3 889114527#0 889114527#1 889114527#2 889114527#3 889114527#4 889114527#5 439933929#0 439933929#1 1057563582 68674966 1027206713#0 1027206713#1 -1232833559#1 -1232833559#0 352705236#0 352705236#1 5670172#0 5670172#1 5670172#2 5670172#3 5670172#4"/>
    </vehicle>
    <vehicle id="19" depart="19.00">
        <route edges="5673089#0 5673089#1 5673089#2 5673089#3 5673089#4 1050255677#0 1050255677#1 1050255677#2 1050255677#3 68668558#0 68668558#1 68668558#2 68668558#3 46139037#0 46139037#1 46139037#2 46139037#3 653471091 439933946 439933928#0 439933928#1 439933928#2 5669962#14 5669962#15"/>
    </vehicle>
    <vehicle id="20" depart="20.00">
        <route edges="5671429#10 5671429#11 5671429#12 -496992369#14 -496992369#13 -496992369#12 -496992369#11 -496992369#10 -496992369#9 -496992369#8 -496992369#7"/>
    </vehicle>
    <vehicle id="22" depart="22.00">
        <route edges="-5672138#4 -5672138#3 5672138#3 5672138#4 5672138#5 481047237#0 481047237#1 481047237#2 727644280#3 727644280#4 727644280#5 5673614 352705238#0 352705238#1 352705238#2 352705238#3 352705238#4 352705238#5 352705238#6 352705238#7 5673093#0 5673093#1 5673093#2 5673093#3 420358896#5 420358896#6 420358896#7 420358897#0 420358897#1 420358897#2 905095202#0 905095202#1 46139037#0 46139037#1 46139037#2 46139037#3 653471091 439933946 439933928#0 439933928#1 439933928#2 5669962#14 5669962#15 5669962#16 5669962#17 496992369#5 496992369#6 496992369#7 496992369#8 496992369#9 496992369#10 496992369#11 496992369#12 496992369#13 496992369#14 496992369#15 496992369#16 496992369#17 496992369#18 496992369#19 1316299803#0 1316299803#1"/>
    </vehicle>
    <vehicle id="23" depart="23.00">
        <route edges="1021949718#1 1021949718#2 5672604#0 5672604#1 5672604#2 5672604#3 -496992369#9 -496992369#8 -496992369#7 -496992369#6 -496992369#5 -496992369#4 -496992369#3 -496992369#2 -496992369#1 -496992369#0 767398933#0 767398933#1 653471089#0 653471089#1 653471089#2 5673533 653471090#0 653471090#1 653471090#2 653471090#3 5671663#0 5671663#1 5671663#2 5671663#3 5671663#4 5671663#5 5671663#6 5671663#7 5671663#8 5671663#9 889114527#0 889114527#1 889114527#2 889114527#3 889114527#4 889114527#5 439933929#0 439933929#1 1057563582 68674966 1027206713#0 1027206713#1 24264070#0 24264070#1 24264070#2 24264070#3 157012398#0 157012398#1 157012398#2 157012398#3 157012398#4"/>
    </vehicle>
    <vehicle id="24" depart="24.00">
        <route edges="5670488#1 5670488#2 157012386#7 157012386#8 157012386#9 5672138#3 5672138#4 5672138#5 481047237#0 481047237#1 481047237#2 727644280#3 727644280#4 727644280#5 5671743#0 5671743#1 5671743#2 5671743#3 5671743#4 5671743#5 1050255675#0 1050255675#1 1050255675#2 1050255675#3 1050255675#4 1062029895#0 1062029895#1 5673089#0 5673089#1 5673089#2 5673089#3 5673089#4 1050255677#0 1050255677#1 1050255677#2 1050255677#3 464522037#0 464522037#1 464522037#2 420526338#0 420526338#1"/>
    </vehicle>
    <vehicle id="25" depart="25.00">
        <route edges="420358896#6 420358896#7 420358897#0 420358897#1 420358897#2 905095202#0 905095202#1 46139037#0 46139037#1 46139037#2 46139037#3 653471090#0 653471090#1 653471090#2 653471090#3 1315847472#4 1315847472#5"/>
    </vehicle>
    <vehicle id="26" depart="26.00">
        <route edges="157012386#4 5670814#12 5670814#13 706833046#6 706833046#7 706833046#8 706833047#0 706833047#1"/>
    </vehicle>
    <vehicle id="27" depart="27.00">
        <route edges="5670651#5 5670651#6 5670651#7 439933929#0 439933929#1 1057563582 68674966 1027206713#0 1027206713#1 24264070#0 24264070#1 24264070#2 24264070#3 5670171#0 5670171#1 5670171#2 5670171#3 5670171#4"/>
    </vehicle>
    <vehicle id="32" depart="32.00">
        <route edges="5672896#1 5672896#2 5672896#3 5672896#4 5672896#5 5672896#6 5672896#7 5672896#8 5672896#9 5672896#10 5672896#11 5672896#12 5671429#2 5671429#3 5671429#4 5671429#5 5671429#6 5671429#7 5671429#8 5671429#9 5671429#10 5671429#11 5671429#12 496992369#15 496992369#16 496992369#17 496992369#18 496992369#19 496992369#20 496992369#21 496992369#22 496992369#23 496992369#24 5671774#0 5671774#1 5671774#2 5671774#3 5671774#4 5671774#5 5671774#6 5671774#7"/>
    </vehicle>
    <vehicle id="34" depart="34.00">
        <route edges="25162679#4 1316299804#0 1316299804#1 1316299804#2 -496992369#19 -496992369#18 -496992369#17 -496992369#16 -496992369#15 -496992369#14 -496992369#13 -496992369#12 -496992369#11 -496992369#10 -496992369#9 -496992369#8 -496992369#7 -496992369#6 -496992369#5 -496992369#4 -496992369#3 -496992369#2 -496992369#1 -496992369#0 767398933#0 767398933#1 653471089#0 653471089#1 653471089#2 5673533 653471090#0 653471090#1 653471090#2 653471090#3 1315847472#4 1315847472#5 1315847472#6 1315847472#7 464522037#0 464522037#1 464522037#2 464522037#3 464522037#4 464522037#5 464522037#6 464522037#7 464522037#8 464522037#9 464522037#10 464522037#11 464522037#12 464522037#13 464522037#14 5670897#0 5670897#1 5670897#2 1296083558#0 1296083558#1 706833045#0 706833045#1 706833045#2 706833045#3 1296083557#0 1296083557#1 706833046#0 706833046#1 706833046#2 706833046#3 706833046#4 706833046#5 706833046#6 706833046#7 706833046#8 846137635#0 846137635#1 846137635#2 157012386#3 157012386#4 157012386#5"/>
    </vehicle>
    <vehicle id="37" depart="37.00">
        <route edges="5670814#1 5670814#2 5670814#3 5670814#4 5670814#5 5670814#6 5670814#7 5670814#8 5670814#9 5670814#10 5670814#11 5670814#12 5670814#13 706833046#6 706833046#7 706833046#8 706833047#0 706833047#1 706833047#2 433124968#6 433124968#7 433124968#8 433124968#9 433124968#10 433124968#11"/>
    </vehicle>
    <vehicle id="40" depart="40.00">
        <route edges="496992369#22 496992369#23 496992369#24 -496992369#24 -496992369#23 -496992369#22 -496992369#21 -496992369#20 -496992369#19 -496992369#18 -496992369#17 -496992369#16 -496992369#15 -496992369#14 -496992369#13 -496992369#12 -496992369#11 -496992369#10 -496992369#9 -496992369#8 -496992369#7 -496992369#6 -496992369#5 -496992369#4 -496992369#3 -496992369#2 -496992369#1 -496992369#0 767398933#0 767398933#1 653471089#0 653471089#1 653471089#2 5673533 653471090#0 653471090#1 653471090#2 653471090#3 1315847472#4 1315847472#5 1315847472#6 1315847472#7 464522037#0 464522037#1 464522037#2 464522037#3 464522037#4 464522037#5 464522037#6 464522037#7 464522037#8 464522037#9 464522037#10 464522037#11 464522037#12 464522037#13 464522037#14 5670897#0 5670897#1 5670897#2 1296083558#0 1296083558#1 706833045#0 706833045#1 706833045#2 706833045#3 1296083557#0 1296083557#1 706833046#0 706833046#1 706833046#2 706833046#3 706833046#4 706833046#5 706833046#6 706833046#7 706833046#8 846137635#0 846137635#1 846137635#2 157012386#3 157012386#4"/>
    </vehicle>
    <vehicle id="41" depart="41.00">
        <route edges="5669962#19 5669962#20 5669962#21 5669962#22 1021949723#0 1021949723#1 1021949723#2 1021949723#3 1021949722#0 1021949722#1 1021949722#2 767398934#0 767398934#1 767398934#2 945473888#0 945473888#1 945473888#2 945473888#3 496992369#0 496992369#1 496992369#2 496992369#3 496992369#4 496992369#5 496992369#6 496992369#7 496992369#8 496992369#9 496992369#10 496992369#11 496992369#12 496992369#13 496992369#14 496992369#15 496992369#16 496992369#17 496992369#18 496992369#19 496992369#20 496992369#21 496992369#22 496992369#23 496992369#24 5671774#0 5671774#1 5671774#2 5671774#3 5671774#4 -5671774#4 -5671774#3 -5671774#2 -5671774#1 -5671774#0 -630828594#4 -630828594#3 -630828594#2 -630828594#1 -630828594#0 630828594#0 630828594#1 630828594#2"/>
    </vehicle>
    <vehicle id="42" depart="42.00">
        <route edges="421825692#2 421825692#3 5671429#4 5671429#5 5671429#6 5671429#7 5671429#8 5672176#0 5672176#1 5672176#2 5672176#3 1315848405#0 1315848405#1 1315848405#2"/>
    </vehicle>
    <vehicle id="43" depart="43.00">
        <route edges="955261517#1 955261517#2 479642038#0 479642038#1"/>
    </vehicle>
    <vehicle id="44" depart="44.00">
        <route edges="-630828594#2 -630828594#1 -630828594#0 630828594#0 630828594#1 630828594#2 630828594#3 630828594#4 -496992369#24 -496992369#23 -496992369#22 -496992369#21 -496992369#20 -496992369#19 -496992369#18 -496992369#17 -496992369#16 -496992369#15 -496992369#14 -496992369#13 -496992369#12 -496992369#11 -496992369#10 -496992369#9 -496992369#8"/>
    </vehicle>
    <vehicle id="45" depart="45.00">
        <route edges="1021949720#1 1021949720#2 1021949720#3 1068266120#0 1068266120#1 955261514#0 955261514#1 1021949718#0 1021949718#1 1021949718#2 5672604#0 5672604#1 5672604#2 5672604#3 -496992369#9 -496992369#8 -496992369#7 -496992369#6 -496992369#5 -496992369#4 -496992369#3 -496992369#2 -496992369#1 -496992369#0 -945473887#2 -945473887#1 -945473887#0 -438389785#2 -438389785#1 -438389785#0 5670232#0 5670232#1"/>
    </vehicle>
    <vehicle id="46" depart="46.00">
        <route edges="5672138#1 5672138#2 5672138#3 5672138#4 5672138#5 481047237#0 481047237#1 481047237#2 727644280#3 727644280#4 727644280#5 5671743#0 5671743#1 5671743#2 5671743#3 5671743#4 5671743#5 1050255675#0 1050255675#1 1050255675#2 1050255675#3 1050255675#4 5672896#0 5672896#1 5672896#2 5672896#3 5671663#6 5671663#7 5671663#8 5671663#9 889114527#0 889114527#1 889114527#2 889114527#3 889114527#4 889114527#5 439933929#0 439933929#1"/>
    </vehicle>
    <vehicle id="47" depart="47.00">
        <route edges="-5671774#2 -5671774#1 -5671774#0 -496992369#24 -496992369#23 -496992369#22 -496992369#21 -496992369#20 1316299803#0 1316299803#1 1315848406#0 1315848406#1 1315848406#2 1315848405#0 1315848405#1 421825692#2"/>
    </vehicle>
    <vehicle id="48" depart="48.00">
        <route edges="955261516#0 955261516#1 955261516#2 5671659#0 5671659#1 5671659#2 5671659#3 5671659#4 1021949724#0 1021949724#1 1021949724#2 1021949725#0 1021949725#1 1021949725#2 1021949727#0 1021949727#1 1021949727#2 479642040#0 479642040#1"/>
    </vehicle>
    <vehicle id="49" depart="49.00">
        <route edges="846137635#2 157012386#3 157012386#4 5670814#12 5670814#13 5670814#14 5670814#15 5670814#16 5672040#3 5672040#4 5672040#5 727644280#0 727644280#1 727644280#2 727644280#3 727644280#4 727644280#5 5671743#0 5671743#1 5671743#2 5671743#3 5671743#4 5671743#5 1050255675#0 1050255675#1 1050255675#2 1050255675#3 1050255675#4 1062029895#0 1062029895#1 5673089#0"/>
    </vehicle>
    <vehicle id="51" depart="51.00">
        <route edges="5670814#7 5670814#8 5670814#9 5670814#10 5670814#11 157012386#5 157012386#6 481403101#0 481403101#1"/>
    </vehicle>
    <vehicle id="52" depart="52.00">
        <route edges="157012386#4 5670814#12 5670814#13 5670814#14 5670814#15 5670814#16 5672040#3 5672040#4 5672040#5 386211349#0 386211349#1 386211349#2 5670488#0 5670488#1"/>
    </vehicle>
    <vehicle id="53" depart="53.00">
        <route edges="1021949720#1 1021949720#2 1021949720#3 1068266120#0 1068266120#1 955261514#0 955261514#1 1021949718#0 1021949718#1 1021949718#2 5672604#0 5672604#1 5672604#2 5672604#3 -496992369#9 -496992369#8 -496992369#7 -496992369#6 -496992369#5 -496992369#4 -496992369#3 -496992369#2 -496992369#1 -496992369#0 767398933#0 767398933#1 653471089#0 653471089#1 653471089#2 5673533 653471090#0 653471090#1 653471090#2 653471090#3 1315847472#4 1315847472#5 1315847472#6 1315847472#7 68668558#0 68668558#1 68668558#2 68668558#3 46139037#0 46139037#1"/>
    </vehicle>
    <vehicle id="56" depart="56.00">
        <route edges="479642035#7 479642035#8 1021949718#0 1021949718#1 1021949718#2 5672604#0 5672604#1 5672604#2 5672604#3 -496992369#9 -496992369#8 -496992369#7 -496992369#6 -496992369#5 -496992369#4 -496992369#3 -496992369#2 -496992369#1 -496992369#0 767398933#0 767398933#1 653471089#0 653471089#1 653471089#2 5673533 653471090#0 653471090#1 653471090#2 653471090#3 1315847472#4 1315847472#5 1315847472#6 1315847472#7 464522037#0 464522037#1 464522037#2 464522037#3 464522037#4 464522037#5 464522037#6 464522037#7 464522037#8 5672910#0 5672910#1 5672910#2 5672910#3 5672910#4 5672910#5 5672873#3 5672873#4 1149701654#0 1149701654#1 1149701654#2 1149701654#3 1315845423#0 1315845423#1 5673089#2 5673089#3 5673089#4 1050255677#0 1050255677#1"/>
    </vehicle>
    <vehicle id="57" depart="57.00">
        <route edges="68668558#1 68668558#2 68668558#3 451904646#0 451904646#1 451904646#2 451904646#3 196117006#0 196117006#1 5670782#0 5670782#1 584971395#0 584971395#1 584971395#2 630828592#0 630828592#1 630828592#2 630828592#3 630828592#4 630828592#5 1315845427#0 1315845427#1 1315845427#2 1315845428#0 1315845428#1 1315845428#2 945523294#0 945523294#1 945523294#2 276670360#0 276670360#1 276670360#2 1316835906 1315845433#0 1315845433#1 1315845433#2 5673093#9 5673093#10"/>
    </vehicle>
    <vehicle id="58" depart="58.00">
        <route edges="24264070#2 24264070#3 157012398#0 157012398#1 157012398#2 157012398#3 157012398#4 157012398#5 5672040#0 5672040#1 5672040#2 5672040#3 5672040#4 5672040#5 386211349#0 386211349#1 386211349#2 5670488#0 5670488#1"/>
    </vehicle>
    <vehicle id="59" depart="59.00">
        <route edges="5670172#1 5670172#2 1149701654#2 1149701654#3 1315845423#0 1315845423#1 5673089#2 5673089#3 5673089#4 1050255677#0 1050255677#1 1050255677#2 1050255677#3 68668558#0 68668558#1 68668558#2 68668558#3 451904646#0 451904646#1 451904646#2 451904646#3 196117006#0 196117006#1 5670782#0 5670782#1 5670232#0 5670232#1 5670232#2 1021949725#0 1021949725#1 1021949725#2 1021949727#0 1021949727#1 1021949727#2 1021949729#0 1021949729#1 1021949729#2 1021949730#0 1021949730#1"/>
    </vehicle>
    <vehicle id="60" depart="60.00">
        <route edges="5671754#1 5671754#2 157012398#3 157012398#4 157012398#5 157012387#0 157012387#1 157012387#2 846137635#0 846137635#1 846137635#2 157012386#3 157012386#4 157012386#5 157012386#6 481403101#0 481403101#1"/>
    </vehicle>
    <vehicle id="61" depart="61.00">
        <route edges="5671774#8 5671774#9 5671774#10 5671774#11 5671774#12 5671774#13 5671774#14 5671774#15 5671774#16 5671774#17 -5671774#17 -5671774#16 -5671774#15 -5671774#14 -5671774#13 -5671774#12 -5671774#11 -5671774#10 -5671774#9 -5671774#8 -5671774#7 -5671774#6 -5671774#5 -5671774#4 -5671774#3 -5671774#2 -5671774#1 -5671774#0 -496992369#24 -496992369#23 -496992369#22 -496992369#21 -496992369#20 -496992369#19 -496992369#18 -496992369#17 -496992369#16 -496992369#15 5671429#13 5671429#14 1029629817#0 1029629817#1 1021949719#0 1021949719#1 1021949719#2 1021949721#0 1021949721#1 1021949721#2 1021949721#3 1021949723#0 1021949723#1 1021949723#2 1021949723#3 1021949724#0 1021949724#1 1021949724#2 1021949725#0 1021949725#1 1021949725#2 1021949727#0 1021949727#1 1021949727#2 479642040#0 479642040#1"/>
    </vehicle>
    <vehicle id="62" depart="62.00">
        <route edges="-1067449180#1 -1067449180#0 68674966 1027206713#0 1027206713#1 -1232833559#1 -1232833559#0 352705236#0 352705236#1 5670172#0 5670172#1 5670172#2 5670172#3 5670172#4 5670172#5 25199883#3 25199883#4 25199883#5 25199883#6 25199883#7 25199883#8 25199883#9 25199883#10 25199883#11 25199883#12 25199883#13 25199883#14 25199883#15 25199883#16 25199883#17"/>
    </vehicle>
    <vehicle id="63" depart="63.00">
        <route edges="-352705236#0 1232833559#0 1232833559#1 24264070#0 24264070#1 24264070#2 24264070#3 157012398#0 157012398#1 157012398#2 157012398#3 157012398#4 157012398#5 5672040#0 5672040#1 5672040#2 5672040#3 5672040#4 5672040#5 386211349#0 386211349#1 386211349#2 706833046#3 706833046#4"/>
    </vehicle>
    <vehicle id="64" depart="64.00">
        <route edges="5673093#5 5673093#6 5673093#7 5673093#8 -1315845433#2 -1315845433#1 -1315845433#0 -1316835906 -276670360#2 -276670360#1 -276670360#0 -945523294#2 -945523294#1 -945523294#0 -1315845428#2 -1315845428#1 -1315845428#0 -1315845427#2 -1315845427#1 -1315845427#0 -630828592#5 -630828592#4 -630828592#3 -630828592#2 -630828592#1 -630828592#0 -584971395#2 -584971395#1 -584971395#0 438389785#0 438389785#1 438389785#2 945473887#0 945473887#1 945473887#2 767398933#0 767398933#1 653471089#0 653471089#1 653471089#2 5673533 653471090#0 653471090#1 653471090#2 653471090#3 5671663#0 5671663#1 5671663#2 5671663#3 5671663#4 5671663#5 5672896#4 5672896#5 5672896#6 5672896#7 5672896#8 5672896#9 5672896#10 5672607#3 5672607#4"/>
    </vehicle>
    <vehicle id="65" depart="65.00">
        <route edges="25162679#1 25162679#2 25162679#3 25162679#4 1316299804#0 1316299804#1 1316299804#2 496992369#20 496992369#21 496992369#22 496992369#23 496992369#24 5671774#0 5671774#1 5671774#2 5671774#3 5671774#4 -5671774#4 -5671774#3 -5671774#2"/>
    </vehicle>
    <vehicle id="67" depart="67.00">
        <route edges="-630828592#5 -630828592#4 -630828592#3 -630828592#2 -630828592#1 -630828592#0 -584971395#2 -584971395#1 -584971395#0 5670232#0 5670232#1 5670232#2 847950378#0 847950378#1 847950378#2 1059551869#0 1059551869#1 955261516#0 955261516#1 955261516#2 955261515#0 955261515#1 955261515#2 955261515#3 479642036#0 479642036#1"/>
    </vehicle>
    <vehicle id="68" depart="68.00">
        <route edges="-5671774#9 -5671774#8 -5671774#7 -5671774#6 -5671774#5 -5671774#4 -5671774#3 -5671774#2 -5671774#1 -5671774#0 -496992369#24 -496992369#23 -496992369#22 -496992369#21 -496992369#20 -496992369#19 -496992369#18 -496992369#17 -496992369#16 -496992369#15 -496992369#14 -496992369#13 -496992369#12 -496992369#11 -496992369#10 -496992369#9 -496992369#8 -496992369#7 -496992369#6 -496992369#5 -496992369#4 -496992369#3 -496992369#2 -496992369#1 -496992369#0 767398933#0 767398933#1 653471089#0 653471089#1 653471089#2 5673533 653471090#0 653471090#1 653471090#2 653471090#3 1315847472#4 1315847472#5 1315847472#6 1315847472#7 464522037#0 464522037#1 464522037#2 464522037#3 464522037#4 464522037#5 464522037#6 464522037#7 464522037#8 464522037#9 464522037#10 464522037#11 464522037#12 464522037#13 464522037#14 5670897#0 5670897#1 5670897#2 1296083558#0 1296083558#1 706833045#0 706833045#1 706833045#2 706833045#3 1296083557#0 1296083557#1 706833046#0 706833046#1 706833046#2 706833046#3 706833046#4 706833046#5 706833046#6 706833046#7 706833046#8 706833047#0 706833047#1 706833047#2 433124968#6 433124968#7 433124968#8 433124968#9 433124968#10 5671754#1"/>
    </vehicle>
    <vehicle id="69" depart="69.00">
        <route edges="5671754#1 5671754#2 157012398#3 157012398#4 157012398#5 5672040#0 5672040#1 5672040#2 5672040#3 5672040#4 5672040#5 727644280#0 727644280#1 727644280#2 727644280#3 727644280#4 727644280#5 5673614 352705238#0 352705238#1 352705238#2 352705238#3 352705238#4 352705238#5 352705238#6 352705238#7 5673093#0 5673093#1 5673093#2 5673093#3 420358896#5 420358896#6 420358896#7 420358897#0 420358897#1 420358897#2 905095202#0 905095202#1 451904646#0 451904646#1 451904646#2 451904646#3 196117006#0 196117006#1 5670782#0 5670782#1 5670232#0 5670232#1 5670232#2 1021949725#0 1021949725#1 1021949725#2 1021949726#0 1021949726#1"/>
    </vehicle>
    <vehicle id="70" depart="70.00">
        <route edges="464522037#7 464522037#8 464522037#9 464522037#10 464522037#11 5673093#0 5673093#1 5673093#2 5673093#3 420358896#5 420358896#6 420358896#7 420358897#0 420358897#1 420358897#2 905095202#0 905095202#1 46139037#0 46139037#1 46139037#2 46139037#3 653471091 439933946 439933928#0 439933928#1 439933928#2 5669962#14 5669962#15 5669962#16 5669962#17 496992369#5 496992369#6 496992369#7 496992369#8 496992369#9 496992369#10 496992369#11 496992369#12 496992369#13 496992369#14 496992369#15 496992369#16 496992369#17 496992369#18 496992369#19 496992369#20 496992369#21 496992369#22"/>
    </vehicle>
    <vehicle id="72" depart="72.00">